  Page 1                                    Wed Aug 07 13:31:29 2019

  ******************************************************************
  *                           E P A N E T                          *
  *                   Hydraulic and Water Quality                  *
  *                   Analysis for Pipe Networks                   *
  *                         Version 2.2                            *
  ******************************************************************
  
  Analysis begun Wed Aug 07 13:31:29 2019

   
  Node Results at 0:00:00 hrs:
  --------------------------------------------------------
                     Demand      Head  Pressure  Flouride
  Node                  gpm        ft       psi      mg/l
  --------------------------------------------------------
  33                   0.00   1000.00    433.30    1.0000
  i1                   0.24   1000.00    433.30    1.0000
  i2                   0.15   1000.00    433.30    1.0000
  i3                   0.30   1000.00    433.30    1.0000
  i4                   0.46   1000.00    433.30    1.0000
  34                   0.74   1000.00    433.30    1.0000
  src                 -1.89   1000.00      0.00    0.0000  Reservoir
   
   
  Link Results at 0:00:00 hrs:
  ----------------------------------------------
                       Flow  Velocity  Headloss
  Link                  gpm       fps   /1000ft
  ----------------------------------------------
  L1                 1.8900      0.01      0.00
  P1                 1.8900      0.01      0.00
  P2                 1.6473      0.01      0.00
  P3                 1.4991      0.01      0.00
  P4                 1.1957      0.01      0.00
  P5                 0.7401      0.00      0.00
   
   
  Node Results at 1:00:00 hrs:
  --------------------------------------------------------
                     Demand      Head  Pressure  Flouride
  Node                  gpm        ft       psi      mg/l
  --------------------------------------------------------
  33                   0.00   1000.00    433.30    1.0000
  i1                   0.20   1000.00    433.30    1.0000
  i2                   0.12   1000.00    433.30    1.0000
  i3                   0.25   1000.00    433.30    1.0000
  i4                   0.38   1000.00    433.30    1.0000
  34                   0.61   1000.00    433.30    1.0000
  src                 -1.56   1000.00      0.00    0.0000  Reservoir
   
   
  Link Results at 1:00:00 hrs:
  ----------------------------------------------
                       Flow  Velocity  Headloss
  Link                  gpm       fps   /1000ft
  ----------------------------------------------
  L1                 1.5600      0.01      0.00
  P1                 1.5600      0.01      0.00
  P2                 1.3597      0.01      0.00
  P3                 1.2374      0.01      0.00
  P4                 0.9869      0.01      0.00
  P5                 0.6109      0.00      0.00
   
   
  Node Results at 2:00:00 hrs:
  --------------------------------------------------------
                     Demand      Head  Pressure  Flouride
  Node                  gpm        ft       psi      mg/l
  --------------------------------------------------------
  33                   0.00   1000.00    433.30    1.0000
  i1                   0.19   1000.00    433.30    1.0000
  i2                   0.11   1000.00    433.30    1.0000
  i3                   0.23   1000.00    433.30    1.0000
  i4                   0.35   1000.00    433.30    1.0000
  34                   0.57   1000.00    433.30    1.0000
  src                 -1.45   1000.00      0.00    0.0000  Reservoir
   
   
  Link Results at 2:00:00 hrs:
  ----------------------------------------------
                       Flow  Velocity  Headloss
  Link                  gpm       fps   /1000ft
  ----------------------------------------------
  L1                 1.4501      0.01      0.00
  P1                 1.4500      0.01      0.00
  P2                 1.2638      0.01      0.00
  P3                 1.1501      0.01      0.00
  P4                 0.9173      0.01      0.00
  P5                 0.5678      0.00      0.00
   
   
  Node Results at 3:00:00 hrs:
  --------------------------------------------------------
                     Demand      Head  Pressure  Flouride
  Node                  gpm        ft       psi      mg/l
  --------------------------------------------------------
  33                   0.00   1000.00    433.30    1.0000
  i1                   0.19   1000.00    433.30    1.0000
  i2                   0.11   1000.00    433.30    1.0000
  i3                   0.23   1000.00    433.30    1.0000
  i4                   0.35   1000.00    433.30    1.0000
  34                   0.57   1000.00    433.30    1.0000
  src                 -1.45   1000.00      0.00    0.0000  Reservoir
   
   
  Link Results at 3:00:00 hrs:
  ----------------------------------------------
                       Flow  Velocity  Headloss
  Link                  gpm       fps   /1000ft
  ----------------------------------------------
  L1                 1.4499      0.01      0.00
  P1                 1.4500      0.01      0.00
  P2                 1.2638      0.01      0.00
  P3                 1.1501      0.01      0.00
  P4                 0.9173      0.01      0.00
  P5                 0.5678      0.00      0.00
   
   
  Node Results at 4:00:00 hrs:
  --------------------------------------------------------
                     Demand      Head  Pressure  Flouride
  Node                  gpm        ft       psi      mg/l
  --------------------------------------------------------
  33                   0.00   1000.00    433.30    1.0000
  i1                   0.17   1000.00    433.30    1.0000
  i2                   0.11   1000.00    433.30    1.0000
  i3                   0.22   1000.00    433.30    1.0000
  i4                   0.32   1000.00    433.30    1.0000
  34                   0.52   1000.00    433.30    1.0000
  src                 -1.34   1000.00      0.00    0.0000  Reservoir
   
   
  Link Results at 4:00:00 hrs:
  ----------------------------------------------
                       Flow  Velocity  Headloss
  Link                  gpm       fps   /1000ft
  ----------------------------------------------
  L1                 1.3401      0.01      0.00
  P1                 1.3400      0.01      0.00
  P2                 1.1679      0.01      0.00
  P3                 1.0629      0.01      0.00
  P4                 0.8478      0.01      0.00
  P5                 0.5247      0.00      0.00
   
   
  Node Results at 5:00:00 hrs:
  --------------------------------------------------------
                     Demand      Head  Pressure  Flouride
  Node                  gpm        ft       psi      mg/l
  --------------------------------------------------------
  33                   0.00   1000.00    433.30    1.0000
  i1                   0.23   1000.00    433.30    1.0000
  i2                   0.14   1000.00    433.30    1.0000
  i3                   0.29   1000.00    433.30    1.0000
  i4                   0.43   1000.00    433.30    1.0000
  34                   0.70   1000.00    433.30    1.0000
  src                 -1.78   1000.00      0.00    0.0000  Reservoir
   
   
  Link Results at 5:00:00 hrs:
  ----------------------------------------------
                       Flow  Velocity  Headloss
  Link                  gpm       fps   /1000ft
  ----------------------------------------------
  L1                 1.7800      0.01      0.00
  P1                 1.7800      0.01      0.00
  P2                 1.5514      0.01      0.00
  P3                 1.4119      0.01      0.00
  P4                 1.1261      0.01      0.00
  P5                 0.6970      0.00      0.00
   
   
  Node Results at 6:00:00 hrs:
  --------------------------------------------------------
                     Demand      Head  Pressure  Flouride
  Node                  gpm        ft       psi      mg/l
  --------------------------------------------------------
  33                   0.00   1000.00    433.30    1.0000
  i1                   0.25   1000.00    433.30    1.0000
  i2                   0.15   1000.00    433.30    1.0000
  i3                   0.31   1000.00    433.30    1.0000
  i4                   0.46   1000.00    433.30    1.0000
  34                   0.75   1000.00    433.30    1.0000
  src                 -1.92   1000.00      0.00    0.0000  Reservoir
   
   
  Link Results at 6:00:00 hrs:
  ----------------------------------------------
                       Flow  Velocity  Headloss
  Link                  gpm       fps   /1000ft
  ----------------------------------------------
  L1                 1.9201      0.01      0.00
  P1                 1.9200      0.01      0.00
  P2                 1.6735      0.01      0.00
  P3                 1.5229      0.01      0.00
  P4                 1.2147      0.01      0.00
  P5                 0.7519      0.00      0.00
   
   
  Node Results at 7:00:00 hrs:
  --------------------------------------------------------
                     Demand      Head  Pressure  Flouride
  Node                  gpm        ft       psi      mg/l
  --------------------------------------------------------
  33                   0.00   1000.00    433.30    1.0000
  i1                   0.13   1000.00    433.30    1.0000
  i2                   0.08   1000.00    433.30    1.0000
  i3                   0.16   1000.00    433.30    1.0000
  i4                   0.24   1000.00    433.30    1.0000
  34                   0.39   1000.00    433.30    1.0000
  src                 -1.00   1000.00      0.00    0.0000  Reservoir
   
   
  Link Results at 7:00:00 hrs:
  ----------------------------------------------
                       Flow  Velocity  Headloss
  Link                  gpm       fps   /1000ft
  ----------------------------------------------
  L1                 1.0000      0.01      0.00
  P1                 1.0000      0.01      0.00
  P2                 0.8716      0.01      0.00
  P3                 0.7932      0.01      0.00
  P4                 0.6326      0.00      0.00
  P5                 0.3916      0.00      0.00
   
   
  Node Results at 8:00:00 hrs:
  --------------------------------------------------------
                     Demand      Head  Pressure  Flouride
  Node                  gpm        ft       psi      mg/l
  --------------------------------------------------------
  33                   0.00   1000.00    433.30    1.0000
  i1                   0.13   1000.00    433.30    1.0000
  i2                   0.08   1000.00    433.30    1.0000
  i3                   0.16   1000.00    433.30    1.0000
  i4                   0.24   1000.00    433.30    1.0000
  34                   0.39   1000.00    433.30    1.0000
  src                 -1.00   1000.00      0.00    0.0000  Reservoir
   
   
  Link Results at 8:00:00 hrs:
  ----------------------------------------------
                       Flow  Velocity  Headloss
  Link                  gpm       fps   /1000ft
  ----------------------------------------------
  L1                 1.0000      0.01      0.00
  P1                 1.0000      0.01      0.00
  P2                 0.8716      0.01      0.00
  P3                 0.7932      0.01      0.00
  P4                 0.6326      0.00      0.00
  P5                 0.3916      0.00      0.00
   
   
  Node Results at 9:00:00 hrs:
  --------------------------------------------------------
                     Demand      Head  Pressure  Flouride
  Node                  gpm        ft       psi      mg/l
  --------------------------------------------------------
  33                   0.00   1000.00    433.30    1.0000
  i1                   0.26   1000.00    433.30    1.0000
  i2                   0.16   1000.00    433.30    1.0000
  i3                   0.32   1000.00    433.30    1.0000
  i4                   0.48   1000.00    433.30    1.0000
  34                   0.79   1000.00    433.30    1.0000
  src                 -2.01   1000.00      0.00    0.0000  Reservoir
   
   
  Link Results at 9:00:00 hrs:
  ----------------------------------------------
                       Flow  Velocity  Headloss
  Link                  gpm       fps   /1000ft
  ----------------------------------------------
  L1                 2.0100      0.01      0.00
  P1                 2.0100      0.01      0.00
  P2                 1.7519      0.01      0.00
  P3                 1.5943      0.01      0.00
  P4                 1.2716      0.01      0.00
  P5                 0.7871      0.01      0.00
   
   
  Node Results at 10:00:00 hrs:
  --------------------------------------------------------
                     Demand      Head  Pressure  Flouride
  Node                  gpm        ft       psi      mg/l
  --------------------------------------------------------
  33                   0.00   1000.00    433.30    1.0000
  i1                   0.47   1000.00    433.30    1.0000
  i2                   0.29   1000.00    433.30    1.0000
  i3                   0.59   1000.00    433.30    1.0000
  i4                   0.89   1000.00    433.30    1.0000
  34                   1.44   1000.00    433.30    1.0000
  src                 -3.69   1000.00      0.00    0.0000  Reservoir
   
   
  Link Results at 10:00:00 hrs:
  ----------------------------------------------
                       Flow  Velocity  Headloss
  Link                  gpm       fps   /1000ft
  ----------------------------------------------
  L1                 3.6899      0.02      0.00
  P1                 3.6900      0.02      0.00
  P2                 3.2162      0.02      0.00
  P3                 2.9268      0.02      0.00
  P4                 2.3345      0.01      0.00
  P5                 1.4450      0.01      0.00
   
   
  Node Results at 11:00:00 hrs:
  --------------------------------------------------------
                     Demand      Head  Pressure  Flouride
  Node                  gpm        ft       psi      mg/l
  --------------------------------------------------------
  33                   0.00   1000.00    433.30    1.0000
  i1                   0.19   1000.00    433.30    1.0000
  i2                   0.11   1000.00    433.30    1.0000
  i3                   0.23   1000.00    433.30    1.0000
  i4                   0.35   1000.00    433.30    1.0000
  34                   0.57   1000.00    433.30    1.0000
  src                 -1.45   1000.00      0.00    0.0000  Reservoir
   
   
  Link Results at 11:00:00 hrs:
  ----------------------------------------------
                       Flow  Velocity  Headloss
  Link                  gpm       fps   /1000ft
  ----------------------------------------------
  L1                 1.4500      0.01      0.00
  P1                 1.4500      0.01      0.00
  P2                 1.2638      0.01      0.00
  P3                 1.1501      0.01      0.00
  P4                 0.9173      0.01      0.00
  P5                 0.5678      0.00      0.00
   
   
  Node Results at 12:00:00 hrs:
  --------------------------------------------------------
                     Demand      Head  Pressure  Flouride
  Node                  gpm        ft       psi      mg/l
  --------------------------------------------------------
  33                   0.00   1000.00    433.30    1.0000
  i1                   0.18   1000.00    433.30    1.0000
  i2                   0.11   1000.00    433.30    1.0000
  i3                   0.22   1000.00    433.30    1.0000
  i4                   0.33   1000.00    433.30    1.0000
  34                   0.54   1000.00    433.30    1.0000
  src                 -1.38   1000.00      0.00    0.0000  Reservoir
   
   
  Link Results at 12:00:00 hrs:
  ----------------------------------------------
                       Flow  Velocity  Headloss
  Link                  gpm       fps   /1000ft
  ----------------------------------------------
  L1                 1.3800      0.01      0.00
  P1                 1.3800      0.01      0.00
  P2                 1.2028      0.01      0.00
  P3                 1.0946      0.01      0.00
  P4                 0.8731      0.01      0.00
  P5                 0.5404      0.00      0.00
   
   
  Node Results at 13:00:00 hrs:
  --------------------------------------------------------
                     Demand      Head  Pressure  Flouride
  Node                  gpm        ft       psi      mg/l
  --------------------------------------------------------
  33                   0.00   1000.00    433.30    1.0000
  i1                   0.13   1000.00    433.30    1.0000
  i2                   0.08   1000.00    433.30    1.0000
  i3                   0.16   1000.00    433.30    1.0000
  i4                   0.25   1000.00    433.30    1.0000
  34                   0.40   1000.00    433.30    1.0000
  src                 -1.02   1000.00      0.00    0.0000  Reservoir
   
   
  Link Results at 13:00:00 hrs:
  ----------------------------------------------
                       Flow  Velocity  Headloss
  Link                  gpm       fps   /1000ft
  ----------------------------------------------
  L1                 1.0200      0.01      0.00
  P1                 1.0200      0.01      0.00
  P2                 0.8890      0.01      0.00
  P3                 0.8090      0.01      0.00
  P4                 0.6453      0.00      0.00
  P5                 0.3994      0.00      0.00
   
   
  Node Results at 14:00:00 hrs:
  --------------------------------------------------------
                     Demand      Head  Pressure  Flouride
  Node                  gpm        ft       psi      mg/l
  --------------------------------------------------------
  33                   0.00   1000.00    433.30    1.0000
  i1                   0.27   1000.00    433.30    1.0000
  i2                   0.17   1000.00    433.30    1.0000
  i3                   0.34   1000.00    433.30    1.0000
  i4                   0.52   1000.00    433.30    1.0000
  34                   0.84   1000.00    433.30    1.0000
  src                 -2.14   1000.00      0.00    0.0000  Reservoir
   
   
  Link Results at 14:00:00 hrs:
  ----------------------------------------------
                       Flow  Velocity  Headloss
  Link                  gpm       fps   /1000ft
  ----------------------------------------------
  L1                 2.1400      0.01      0.00
  P1                 2.1400      0.01      0.00
  P2                 1.8652      0.01      0.00
  P3                 1.6974      0.01      0.00
  P4                 1.3539      0.01      0.00
  P5                 0.8380      0.01      0.00
   
   
  Node Results at 15:00:00 hrs:
  --------------------------------------------------------
                     Demand      Head  Pressure  Flouride
  Node                  gpm        ft       psi      mg/l
  --------------------------------------------------------
  33                   0.00   1000.00    433.30    1.0000
  i1                   0.12   1000.00    433.30    1.0000
  i2                   0.07   1000.00    433.30    1.0000
  i3                   0.15   1000.00    433.30    1.0000
  i4                   0.22   1000.00    433.30    1.0000
  34                   0.36   1000.00    433.30    1.0000
  src                 -0.92   1000.00      0.00    0.0000  Reservoir
   
   
  Link Results at 15:00:00 hrs:
  ----------------------------------------------
                       Flow  Velocity  Headloss
  Link                  gpm       fps   /1000ft
  ----------------------------------------------
  L1                 0.9200      0.01      0.00
  P1                 0.9200      0.01      0.00
  P2                 0.8019      0.01      0.00
  P3                 0.7297      0.00      0.00
  P4                 0.5820      0.00      0.00
  P5                 0.3603      0.00      0.00
   
   
  Node Results at 16:00:00 hrs:
  --------------------------------------------------------
                     Demand      Head  Pressure  Flouride
  Node                  gpm        ft       psi      mg/l
  --------------------------------------------------------
  33                   0.00   1000.00    433.30    1.0000
  i1                   0.06   1000.00    433.30    1.0000
  i2                   0.04   1000.00    433.30    1.0000
  i3                   0.07   1000.00    433.30    1.0000
  i4                   0.11   1000.00    433.30    1.0000
  34                   0.18   1000.00    433.30    1.0000
  src                 -0.46   1000.00      0.00    0.0000  Reservoir
   
   
  Link Results at 16:00:00 hrs:
  ----------------------------------------------
                       Flow  Velocity  Headloss
  Link                  gpm       fps   /1000ft
  ----------------------------------------------
  L1                 0.4599      0.00      0.00
  P1                 0.4600      0.00      0.00
  P2                 0.4009      0.00      0.00
  P3                 0.3649      0.00      0.00
  P4                 0.2910      0.00      0.00
  P5                 0.1801      0.00      0.00
   
   
  Node Results at 17:00:00 hrs:
  --------------------------------------------------------
                     Demand      Head  Pressure  Flouride
  Node                  gpm        ft       psi      mg/l
  --------------------------------------------------------
  33                   0.00   1000.00    433.30    1.0000
  i1                   0.15   1000.00    433.30    1.0000
  i2                   0.09   1000.00    433.30    1.0000
  i3                   0.19   1000.00    433.30    1.0000
  i4                   0.28   1000.00    433.30    1.0000
  34                   0.46   1000.00    433.30    1.0000
  src                 -1.17   1000.00      0.00    0.0000  Reservoir
   
   
  Link Results at 17:00:00 hrs:
  ----------------------------------------------
                       Flow  Velocity  Headloss
  Link                  gpm       fps   /1000ft
  ----------------------------------------------
  L1                 1.1702      0.01      0.00
  P1                 1.1700      0.01      0.00
  P2                 1.0198      0.01      0.00
  P3                 0.9280      0.01      0.00
  P4                 0.7402      0.00      0.00
  P5                 0.4582      0.00      0.00
   
   
  Node Results at 18:00:00 hrs:
  --------------------------------------------------------
                     Demand      Head  Pressure  Flouride
  Node                  gpm        ft       psi      mg/l
  --------------------------------------------------------
  33                   0.00   1000.00    433.30    1.0000
  i1                   0.07   1000.00    433.30    1.0000
  i2                   0.04   1000.00    433.30    1.0000
  i3                   0.09   1000.00    433.30    1.0000
  i4                   0.13   1000.00    433.30    1.0000
  34                   0.22   1000.00    433.30    1.0000
  src                 -0.56   1000.00      0.00    0.0000  Reservoir
   
   
  Link Results at 18:00:00 hrs:
  ----------------------------------------------
                       Flow  Velocity  Headloss
  Link                  gpm       fps   /1000ft
  ----------------------------------------------
  L1                 0.5601      0.00      0.00
  P1                 0.5600      0.00      0.00
  P2                 0.4881      0.00      0.00
  P3                 0.4442      0.00      0.00
  P4                 0.3543      0.00      0.00
  P5                 0.2193      0.00      0.00
   
   
  Node Results at 19:00:00 hrs:
  --------------------------------------------------------
                     Demand      Head  Pressure  Flouride
  Node                  gpm        ft       psi      mg/l
  --------------------------------------------------------
  33                   0.00   1000.00    433.30    1.0000
  i1                   0.13   1000.00    433.30    1.0000
  i2                   0.08   1000.00    433.30    1.0000
  i3                   0.16   1000.00    433.30    1.0000
  i4                   0.24   1000.00    433.30    1.0000
  34                   0.39   1000.00    433.30    1.0000
  src                 -1.00   1000.00      0.00    0.0000  Reservoir
   
   
  Link Results at 19:00:00 hrs:
  ----------------------------------------------
                       Flow  Velocity  Headloss
  Link                  gpm       fps   /1000ft
  ----------------------------------------------
  L1                 1.0001      0.01      0.00
  P1                 1.0000      0.01      0.00
  P2                 0.8716      0.01      0.00
  P3                 0.7932      0.01      0.00
  P4                 0.6326      0.00      0.00
  P5                 0.3916      0.00      0.00
   
   
  Node Results at 20:00:00 hrs:
  --------------------------------------------------------
                     Demand      Head  Pressure  Flouride
  Node                  gpm        ft       psi      mg/l
  --------------------------------------------------------
  33                   0.00   1000.00    433.30    1.0000
  i1                   0.24   1000.00    433.30    1.0000
  i2                   0.15   1000.00    433.30    1.0000
  i3                   0.30   1000.00    433.30    1.0000
  i4                   0.46   1000.00    433.30    1.0000
  34                   0.74   1000.00    433.30    1.0000
  src                 -1.89   1000.00      0.00    0.0000  Reservoir
   
   
  Link Results at 20:00:00 hrs:
  ----------------------------------------------
                       Flow  Velocity  Headloss
  Link                  gpm       fps   /1000ft
  ----------------------------------------------
  L1                 1.8900      0.01      0.00
  P1                 1.8900      0.01      0.00
  P2                 1.6473      0.01      0.00
  P3                 1.4991      0.01      0.00
  P4                 1.1957      0.01      0.00
  P5                 0.7401      0.00      0.00
   
   
  Node Results at 21:00:00 hrs:
  --------------------------------------------------------
                     Demand      Head  Pressure  Flouride
  Node                  gpm        ft       psi      mg/l
  --------------------------------------------------------
  33                   0.00   1000.00    433.30    1.0000
  i1                   0.30   1000.00    433.30    1.0000
  i2                   0.18   1000.00    433.30    1.0000
  i3                   0.38   1000.00    433.30    1.0000
  i4                   0.56   1000.00    433.30    1.0000
  34                   0.92   1000.00    433.30    1.0000
  src                 -2.34   1000.00      0.00    0.0000  Reservoir
   
   
  Link Results at 21:00:00 hrs:
  ----------------------------------------------
                       Flow  Velocity  Headloss
  Link                  gpm       fps   /1000ft
  ----------------------------------------------
  L1                 2.3400      0.01      0.00
  P1                 2.3400      0.01      0.00
  P2                 2.0395      0.01      0.00
  P3                 1.8560      0.01      0.00
  P4                 1.4804      0.01      0.00
  P5                 0.9163      0.01      0.00
   
   
  Node Results at 22:00:00 hrs:
  --------------------------------------------------------
                     Demand      Head  Pressure  Flouride
  Node                  gpm        ft       psi      mg/l
  --------------------------------------------------------
  33                   0.00   1000.00    433.30    1.0000
  i1                   0.23   1000.00    433.30    1.0000
  i2                   0.14   1000.00    433.30    1.0000
  i3                   0.29   1000.00    433.30    1.0000
  i4                   0.43   1000.00    433.30    1.0000
  34                   0.70   1000.00    433.30    1.0000
  src                 -1.78   1000.00      0.00    0.0000  Reservoir
   
   
  Link Results at 22:00:00 hrs:
  ----------------------------------------------
                       Flow  Velocity  Headloss
  Link                  gpm       fps   /1000ft
  ----------------------------------------------
  L1                 1.7800      0.01      0.00
  P1                 1.7800      0.01      0.00
  P2                 1.5514      0.01      0.00
  P3                 1.4119      0.01      0.00
  P4                 1.1261      0.01      0.00
  P5                 0.6970      0.00      0.00
   
   
  Node Results at 23:00:00 hrs:
  --------------------------------------------------------
                     Demand      Head  Pressure  Flouride
  Node                  gpm        ft       psi      mg/l
  --------------------------------------------------------
  33                   0.00   1000.00    433.30    1.0000
  i1                   0.24   1000.00    433.30    1.0000
  i2                   0.15   1000.00    433.30    1.0000
  i3                   0.30   1000.00    433.30    1.0000
  i4                   0.46   1000.00    433.30    1.0000
  34                   0.74   1000.00    433.30    1.0000
  src                 -1.89   1000.00      0.00    0.0000  Reservoir
   
   
  Link Results at 23:00:00 hrs:
  ----------------------------------------------
                       Flow  Velocity  Headloss
  Link                  gpm       fps   /1000ft
  ----------------------------------------------
  L1                 1.8900      0.01      0.00
  P1                 1.8900      0.01      0.00
  P2                 1.6473      0.01      0.00
  P3                 1.4991      0.01      0.00
  P4                 1.1957      0.01      0.00
  P5                 0.7401      0.00      0.00
   
   
  Node Results at 24:00:00 hrs:
  --------------------------------------------------------
                     Demand      Head  Pressure  Flouride
  Node                  gpm        ft       psi      mg/l
  --------------------------------------------------------
  33                   0.00   1000.00    433.30    0.9860
  i1                   0.12   1000.00    433.30    0.9860
  i2                   0.07   1000.00    433.30    1.0000
  i3                   0.14   1000.00    433.30    1.0000
  i4                   0.22   1000.00    433.30    1.0000
  34                   0.35   1000.00    433.30    1.0000
  src                 -0.90   1000.00      0.00    0.0000  Reservoir
   
   
  Link Results at 24:00:00 hrs:
  ----------------------------------------------
                       Flow  Velocity  Headloss
  Link                  gpm       fps   /1000ft
  ----------------------------------------------
  L1                 0.9001      0.01      0.00
  P1                 0.9000      0.01      0.00
  P2                 0.7844      0.01      0.00
  P3                 0.7139      0.00      0.00
  P4                 0.5694      0.00      0.00
  P5                 0.3524      0.00      0.00
   
   
  Node Results at 25:00:00 hrs:
  --------------------------------------------------------
                     Demand      Head  Pressure  Flouride
  Node                  gpm        ft       psi      mg/l
  --------------------------------------------------------
  33                   0.00   1000.00    433.30    1.0310
  i1                   0.21   1000.00    433.30    0.9860
  i2                   0.13   1000.00    433.30    1.0000
  i3                   0.26   1000.00    433.30    1.0000
  i4                   0.40   1000.00    433.30    1.0000
  34                   0.65   1000.00    433.30    1.0000
  src                 -1.65   1000.00      0.00    0.0000  Reservoir
   
   
  Link Results at 25:00:00 hrs:
  ----------------------------------------------
                       Flow  Velocity  Headloss
  Link                  gpm       fps   /1000ft
  ----------------------------------------------
  L1                 1.6500      0.01      0.00
  P1                 1.6500      0.01      0.00
  P2                 1.4381      0.01      0.00
  P3                 1.3087      0.01      0.00
  P4                 1.0439      0.01      0.00
  P5                 0.6461      0.00      0.00
   
   
  Node Results at 26:00:00 hrs:
  --------------------------------------------------------
                     Demand      Head  Pressure  Flouride
  Node                  gpm        ft       psi      mg/l
  --------------------------------------------------------
  33                   0.00   1000.00    433.30    1.0370
  i1                   0.20   1000.00    433.30    1.0350
  i2                   0.12   1000.00    433.30    1.0000
  i3                   0.25   1000.00    433.30    1.0000
  i4                   0.37   1000.00    433.30    1.0000
  34                   0.60   1000.00    433.30    1.0000
  src                 -1.54   1000.00      0.00    0.0000  Reservoir
   
   
  Link Results at 26:00:00 hrs:
  ----------------------------------------------
                       Flow  Velocity  Headloss
  Link                  gpm       fps   /1000ft
  ----------------------------------------------
  L1                 1.5400      0.01      0.00
  P1                 1.5400      0.01      0.00
  P2                 1.3422      0.01      0.00
  P3                 1.2215      0.01      0.00
  P4                 0.9743      0.01      0.00
  P5                 0.6030      0.00      0.00
   
   
  Node Results at 27:00:00 hrs:
  --------------------------------------------------------
                     Demand      Head  Pressure  Flouride
  Node                  gpm        ft       psi      mg/l
  --------------------------------------------------------
  33                   0.00   1000.00    433.30    0.9960
  i1                   0.14   1000.00    433.30    1.0350
  i2                   0.09   1000.00    433.30    1.0000
  i3                   0.17   1000.00    433.30    1.0000
  i4                   0.26   1000.00    433.30    1.0000
  34                   0.43   1000.00    433.30    1.0000
  src                 -1.09   1000.00      0.00    0.0000  Reservoir
   
   
  Link Results at 27:00:00 hrs:
  ----------------------------------------------
                       Flow  Velocity  Headloss
  Link                  gpm       fps   /1000ft
  ----------------------------------------------
  L1                 1.0900      0.01      0.00
  P1                 1.0900      0.01      0.00
  P2                 0.9500      0.01      0.00
  P3                 0.8646      0.01      0.00
  P4                 0.6896      0.00      0.00
  P5                 0.4268      0.00      0.00
   
   
  Node Results at 28:00:00 hrs:
  --------------------------------------------------------
                     Demand      Head  Pressure  Flouride
  Node                  gpm        ft       psi      mg/l
  --------------------------------------------------------
  33                   0.00   1000.00    433.30    0.6960
  i1                   0.17   1000.00    433.30    0.9960
  i2                   0.10   1000.00    433.30    0.9860
  i3                   0.21   1000.00    433.30    1.0000
  i4                   0.32   1000.00    433.30    1.0000
  34                   0.52   1000.00    433.30    1.0000
  src                 -1.32   1000.00      0.00    0.0000  Reservoir
   
   
  Link Results at 28:00:00 hrs:
  ----------------------------------------------
                       Flow  Velocity  Headloss
  Link                  gpm       fps   /1000ft
  ----------------------------------------------
  L1                 1.3199      0.01      0.00
  P1                 1.3200      0.01      0.00
  P2                 1.1505      0.01      0.00
  P3                 1.0470      0.01      0.00
  P4                 0.8351      0.01      0.00
  P5                 0.5169      0.00      0.00
   
   
  Node Results at 29:00:00 hrs:
  --------------------------------------------------------
                     Demand      Head  Pressure  Flouride
  Node                  gpm        ft       psi      mg/l
  --------------------------------------------------------
  33                   0.00   1000.00    433.30    0.6960
  i1                   0.20   1000.00    433.30    0.6960
  i2                   0.12   1000.00    433.30    1.0349
  i3                   0.26   1000.00    433.30    1.0000
  i4                   0.38   1000.00    433.30    1.0000
  34                   0.62   1000.00    433.30    1.0000
  src                 -1.59   1000.00      0.00    0.0000  Reservoir
   
   
  Link Results at 29:00:00 hrs:
  ----------------------------------------------
                       Flow  Velocity  Headloss
  Link                  gpm       fps   /1000ft
  ----------------------------------------------
  L1                 1.5900      0.01      0.00
  P1                 1.5900      0.01      0.00
  P2                 1.3858      0.01      0.00
  P3                 1.2612      0.01      0.00
  P4                 1.0059      0.01      0.00
  P5                 0.6226      0.00      0.00
   
   
  Node Results at 30:00:00 hrs:
  --------------------------------------------------------
                     Demand      Head  Pressure  Flouride
  Node                  gpm        ft       psi      mg/l
  --------------------------------------------------------
  33                   0.00   1000.00    433.30    1.0010
  i1                   0.19   1000.00    433.30    0.6960
  i2                   0.12   1000.00    433.30    1.0349
  i3                   0.24   1000.00    433.30    1.0000
  i4                   0.36   1000.00    433.30    1.0000
  34                   0.58   1000.00    433.30    1.0000
  src                 -1.49   1000.00      0.00    0.0000  Reservoir
   
   
  Link Results at 30:00:00 hrs:
  ----------------------------------------------
                       Flow  Velocity  Headloss
  Link                  gpm       fps   /1000ft
  ----------------------------------------------
  L1                 1.4901      0.01      0.00
  P1                 1.4900      0.01      0.00
  P2                 1.2987      0.01      0.00
  P3                 1.1818      0.01      0.00
  P4                 0.9426      0.01      0.00
  P5                 0.5835      0.00      0.00
   
   
  Node Results at 31:00:00 hrs:
  --------------------------------------------------------
                     Demand      Head  Pressure  Flouride
  Node                  gpm        ft       psi      mg/l
  --------------------------------------------------------
  33                   0.00   1000.00    433.30    1.0010
  i1                   0.33   1000.00    433.30    1.0010
  i2                   0.20   1000.00    433.30    0.9960
  i3                   0.41   1000.00    433.30    0.9860
  i4                   0.62   1000.00    433.30    1.0000
  34                   1.01   1000.00    433.30    1.0000
  src                 -2.58   1000.00      0.00    0.0000  Reservoir
   
   
  Link Results at 31:00:00 hrs:
  ----------------------------------------------
                       Flow  Velocity  Headloss
  Link                  gpm       fps   /1000ft
  ----------------------------------------------
  L1                 2.5801      0.02      0.00
  P1                 2.5800      0.02      0.00
  P2                 2.2487      0.01      0.00
  P3                 2.0464      0.01      0.00
  P4                 1.6322      0.01      0.00
  P5                 1.0103      0.01      0.00
   
   
  Node Results at 32:00:00 hrs:
  --------------------------------------------------------
                     Demand      Head  Pressure  Flouride
  Node                  gpm        ft       psi      mg/l
  --------------------------------------------------------
  33                   0.00   1000.00    433.30    1.0010
  i1                   0.22   1000.00    433.30    1.0010
  i2                   0.13   1000.00    433.30    0.6960
  i3                   0.27   1000.00    433.30    1.0349
  i4                   0.40   1000.00    433.30    1.0000
  34                   0.66   1000.00    433.30    1.0000
  src                 -1.68   1000.00      0.00    0.0000  Reservoir
   
   
  Link Results at 32:00:00 hrs:
  ----------------------------------------------
                       Flow  Velocity  Headloss
  Link                  gpm       fps   /1000ft
  ----------------------------------------------
  L1                 1.6800      0.01      0.00
  P1                 1.6800      0.01      0.00
  P2                 1.4643      0.01      0.00
  P3                 1.3325      0.01      0.00
  P4                 1.0629      0.01      0.00
  P5                 0.6579      0.00      0.00
   
   
  Node Results at 33:00:00 hrs:
  --------------------------------------------------------
                     Demand      Head  Pressure  Flouride
  Node                  gpm        ft       psi      mg/l
  --------------------------------------------------------
  33                   0.00   1000.00    433.30    1.0010
  i1                   0.26   1000.00    433.30    1.0010
  i2                   0.16   1000.00    433.30    1.0010
  i3                   0.32   1000.00    433.30    0.9960
  i4                   0.48   1000.00    433.30    1.0000
  34                   0.79   1000.00    433.30    1.0000
  src                 -2.01   1000.00      0.00    0.0000  Reservoir
   
   
  Link Results at 33:00:00 hrs:
  ----------------------------------------------
                       Flow  Velocity  Headloss
  Link                  gpm       fps   /1000ft
  ----------------------------------------------
  L1                 2.0100      0.01      0.00
  P1                 2.0100      0.01      0.00
  P2                 1.7519      0.01      0.00
  P3                 1.5943      0.01      0.00
  P4                 1.2716      0.01      0.00
  P5                 0.7871      0.01      0.00
   
   
  Node Results at 34:00:00 hrs:
  --------------------------------------------------------
                     Demand      Head  Pressure  Flouride
  Node                  gpm        ft       psi      mg/l
  --------------------------------------------------------
  33                   0.00   1000.00    433.30    1.0010
  i1                   0.22   1000.00    433.30    1.0010
  i2                   0.13   1000.00    433.30    1.0010
  i3                   0.27   1000.00    433.30    0.6960
  i4                   0.40   1000.00    433.30    1.0000
  34                   0.66   1000.00    433.30    1.0000
  src                 -1.68   1000.00      0.00    0.0000  Reservoir
   
   
  Link Results at 34:00:00 hrs:
  ----------------------------------------------
                       Flow  Velocity  Headloss
  Link                  gpm       fps   /1000ft
  ----------------------------------------------
  L1                 1.6800      0.01      0.00
  P1                 1.6800      0.01      0.00
  P2                 1.4643      0.01      0.00
  P3                 1.3325      0.01      0.00
  P4                 1.0629      0.01      0.00
  P5                 0.6579      0.00      0.00
   
   
  Node Results at 35:00:00 hrs:
  --------------------------------------------------------
                     Demand      Head  Pressure  Flouride
  Node                  gpm        ft       psi      mg/l
  --------------------------------------------------------
  33                   0.00   1000.00    433.30    0.8610
  i1                   0.19   1000.00    433.30    1.0010
  i2                   0.11   1000.00    433.30    1.0010
  i3                   0.23   1000.00    433.30    0.6960
  i4                   0.35   1000.00    433.30    0.9861
  34                   0.57   1000.00    433.30    0.9999
  src                 -1.45   1000.00      0.00    0.0000  Reservoir
   
   
  Link Results at 35:00:00 hrs:
  ----------------------------------------------
                       Flow  Velocity  Headloss
  Link                  gpm       fps   /1000ft
  ----------------------------------------------
  L1                 1.4501      0.01      0.00
  P1                 1.4500      0.01      0.00
  P2                 1.2638      0.01      0.00
  P3                 1.1501      0.01      0.00
  P4                 0.9173      0.01      0.00
  P5                 0.5678      0.00      0.00
   
   
  Node Results at 36:00:00 hrs:
  --------------------------------------------------------
                     Demand      Head  Pressure  Flouride
  Node                  gpm        ft       psi      mg/l
  --------------------------------------------------------
  33                   0.00   1000.00    433.30    0.2130
  i1                   0.20   1000.00    433.30    0.8610
  i2                   0.12   1000.00    433.30    1.0010
  i3                   0.25   1000.00    433.30    1.0010
  i4                   0.38   1000.00    433.30    1.0347
  34                   0.61   1000.00    433.30    0.9999
  src                 -1.56   1000.00      0.00    0.0000  Reservoir
   
   
  Link Results at 36:00:00 hrs:
  ----------------------------------------------
                       Flow  Velocity  Headloss
  Link                  gpm       fps   /1000ft
  ----------------------------------------------
  L1                 1.5600      0.01      0.00
  P1                 1.5600      0.01      0.00
  P2                 1.3597      0.01      0.00
  P3                 1.2374      0.01      0.00
  P4                 0.9869      0.01      0.00
  P5                 0.6109      0.00      0.00
   
   
  Node Results at 37:00:00 hrs:
  --------------------------------------------------------
                     Demand      Head  Pressure  Flouride
  Node                  gpm        ft       psi      mg/l
  --------------------------------------------------------
  33                   0.00   1000.00    433.30    0.2340
  i1                   0.22   1000.00    433.30    0.2130
  i2                   0.14   1000.00    433.30    1.0010
  i3                   0.28   1000.00    433.30    1.0010
  i4                   0.42   1000.00    433.30    1.0347
  34                   0.68   1000.00    433.30    0.9999
  src                 -1.73   1000.00      0.00    0.0000  Reservoir
   
   
  Link Results at 37:00:00 hrs:
  ----------------------------------------------
                       Flow  Velocity  Headloss
  Link                  gpm       fps   /1000ft
  ----------------------------------------------
  L1                 1.7299      0.01      0.00
  P1                 1.7300      0.01      0.00
  P2                 1.5079      0.01      0.00
  P3                 1.3722      0.01      0.00
  P4                 1.0945      0.01      0.00
  P5                 0.6775      0.00      0.00
   
   
  Node Results at 38:00:00 hrs:
  --------------------------------------------------------
                     Demand      Head  Pressure  Flouride
  Node                  gpm        ft       psi      mg/l
  --------------------------------------------------------
  33                   0.00   1000.00    433.30    0.1390
  i1                   0.18   1000.00    433.30    0.2340
  i2                   0.11   1000.00    433.30    0.8610
  i3                   0.22   1000.00    433.30    1.0009
  i4                   0.33   1000.00    433.30    0.9960
  34                   0.54   1000.00    433.30    0.9999
  src                 -1.37   1000.00      0.00    0.0000  Reservoir
   
   
  Link Results at 38:00:00 hrs:
  ----------------------------------------------
                       Flow  Velocity  Headloss
  Link                  gpm       fps   /1000ft
  ----------------------------------------------
  L1                 1.3700      0.01      0.00
  P1                 1.3700      0.01      0.00
  P2                 1.1941      0.01      0.00
  P3                 1.0867      0.01      0.00
  P4                 0.8667      0.01      0.00
  P5                 0.5365      0.00      0.00
   
   
  Node Results at 39:00:00 hrs:
  --------------------------------------------------------
                     Demand      Head  Pressure  Flouride
  Node                  gpm        ft       psi      mg/l
  --------------------------------------------------------
  33                   0.00   1000.00    433.30    0.9300
  i1                   0.12   1000.00    433.30    0.1390
  i2                   0.07   1000.00    433.30    0.8610
  i3                   0.15   1000.00    433.30    1.0009
  i4                   0.22   1000.00    433.30    0.6960
  34                   0.36   1000.00    433.30    0.9999
  src                 -0.92   1000.00      0.00    0.0000  Reservoir
   
   
  Link Results at 39:00:00 hrs:
  ----------------------------------------------
                       Flow  Velocity  Headloss
  Link                  gpm       fps   /1000ft
  ----------------------------------------------
  L1                 0.9199      0.01      0.00
  P1                 0.9200      0.01      0.00
  P2                 0.8019      0.01      0.00
  P3                 0.7297      0.00      0.00
  P4                 0.5820      0.00      0.00
  P5                 0.3603      0.00      0.00
   
   
  Node Results at 40:00:00 hrs:
  --------------------------------------------------------
                     Demand      Head  Pressure  Flouride
  Node                  gpm        ft       psi      mg/l
  --------------------------------------------------------
  33                   0.00   1000.00    433.30    0.9300
  i1                   0.13   1000.00    433.30    0.9300
  i2                   0.08   1000.00    433.30    0.2131
  i3                   0.16   1000.00    433.30    1.0009
  i4                   0.25   1000.00    433.30    0.6960
  34                   0.40   1000.00    433.30    0.9999
  src                 -1.02   1000.00      0.00    0.0000  Reservoir
   
   
  Link Results at 40:00:00 hrs:
  ----------------------------------------------
                       Flow  Velocity  Headloss
  Link                  gpm       fps   /1000ft
  ----------------------------------------------
  L1                 1.0201      0.01      0.00
  P1                 1.0200      0.01      0.00
  P2                 0.8890      0.01      0.00
  P3                 0.8090      0.01      0.00
  P4                 0.6453      0.00      0.00
  P5                 0.3994      0.00      0.00
   
   
  Node Results at 41:00:00 hrs:
  --------------------------------------------------------
                     Demand      Head  Pressure  Flouride
  Node                  gpm        ft       psi      mg/l
  --------------------------------------------------------
  33                   0.00   1000.00    433.30    0.9300
  i1                   0.09   1000.00    433.30    0.9300
  i2                   0.05   1000.00    433.30    0.2340
  i3                   0.11   1000.00    433.30    1.0009
  i4                   0.17   1000.00    433.30    1.0010
  34                   0.27   1000.00    433.30    0.9861
  src                 -0.69   1000.00      0.00    0.0000  Reservoir
   
   
  Link Results at 41:00:00 hrs:
  ----------------------------------------------
                       Flow  Velocity  Headloss
  Link                  gpm       fps   /1000ft
  ----------------------------------------------
  L1                 0.6900      0.00      0.00
  P1                 0.6900      0.00      0.00
  P2                 0.6014      0.00      0.00
  P3                 0.5473      0.00      0.00
  P4                 0.4365      0.00      0.00
  P5                 0.2702      0.00      0.00
   
   
  Node Results at 42:00:00 hrs:
  --------------------------------------------------------
                     Demand      Head  Pressure  Flouride
  Node                  gpm        ft       psi      mg/l
  --------------------------------------------------------
  33                   0.00   1000.00    433.30    0.9300
  i1                   0.10   1000.00    433.30    0.9300
  i2                   0.06   1000.00    433.30    0.2340
  i3                   0.12   1000.00    433.30    1.0009
  i4                   0.19   1000.00    433.30    1.0010
  34                   0.30   1000.00    433.30    0.9861
  src                 -0.77   1000.00      0.00    0.0000  Reservoir
   
   
  Link Results at 42:00:00 hrs:
  ----------------------------------------------
                       Flow  Velocity  Headloss
  Link                  gpm       fps   /1000ft
  ----------------------------------------------
  L1                 0.7700      0.00      0.00
  P1                 0.7700      0.00      0.00
  P2                 0.6711      0.00      0.00
  P3                 0.6107      0.00      0.00
  P4                 0.4871      0.00      0.00
  P5                 0.3015      0.00      0.00
   
   
  Node Results at 43:00:00 hrs:
  --------------------------------------------------------
                     Demand      Head  Pressure  Flouride
  Node                  gpm        ft       psi      mg/l
  --------------------------------------------------------
  33                   0.00   1000.00    433.30    0.9300
  i1                   0.14   1000.00    433.30    0.9300
  i2                   0.09   1000.00    433.30    0.1390
  i3                   0.18   1000.00    433.30    0.8610
  i4                   0.27   1000.00    433.30    1.0010
  34                   0.43   1000.00    433.30    1.0347
  src                 -1.11   1000.00      0.00    0.0000  Reservoir
   
   
  Link Results at 43:00:00 hrs:
  ----------------------------------------------
                       Flow  Velocity  Headloss
  Link                  gpm       fps   /1000ft
  ----------------------------------------------
  L1                 1.1099      0.01      0.00
  P1                 1.1100      0.01      0.00
  P2                 0.9675      0.01      0.00
  P3                 0.8804      0.01      0.00
  P4                 0.7022      0.00      0.00
  P5                 0.4347      0.00      0.00
   
   
  Node Results at 44:00:00 hrs:
  --------------------------------------------------------
                     Demand      Head  Pressure  Flouride
  Node                  gpm        ft       psi      mg/l
  --------------------------------------------------------
  33                   0.00   1000.00    433.30    0.9300
  i1                   0.22   1000.00    433.30    0.9300
  i2                   0.13   1000.00    433.30    0.1390
  i3                   0.27   1000.00    433.30    0.8610
  i4                   0.40   1000.00    433.30    1.0010
  34                   0.66   1000.00    433.30    1.0347
  src                 -1.68   1000.00      0.00    0.0000  Reservoir
   
   
  Link Results at 44:00:00 hrs:
  ----------------------------------------------
                       Flow  Velocity  Headloss
  Link                  gpm       fps   /1000ft
  ----------------------------------------------
  L1                 1.6800      0.01      0.00
  P1                 1.6800      0.01      0.00
  P2                 1.4643      0.01      0.00
  P3                 1.3325      0.01      0.00
  P4                 1.0629      0.01      0.00
  P5                 0.6579      0.00      0.00
   
   
  Node Results at 45:00:00 hrs:
  --------------------------------------------------------
                     Demand      Head  Pressure  Flouride
  Node                  gpm        ft       psi      mg/l
  --------------------------------------------------------
  33                   0.00   1000.00    433.30    0.9300
  i1                   0.26   1000.00    433.30    0.9300
  i2                   0.16   1000.00    433.30    0.9300
  i3                   0.32   1000.00    433.30    0.2131
  i4                   0.48   1000.00    433.30    1.0010
  34                   0.79   1000.00    433.30    0.9960
  src                 -2.01   1000.00      0.00    0.0000  Reservoir
   
   
  Link Results at 45:00:00 hrs:
  ----------------------------------------------
                       Flow  Velocity  Headloss
  Link                  gpm       fps   /1000ft
  ----------------------------------------------
  L1                 2.0100      0.01      0.00
  P1                 2.0100      0.01      0.00
  P2                 1.7519      0.01      0.00
  P3                 1.5943      0.01      0.00
  P4                 1.2716      0.01      0.00
  P5                 0.7871      0.01      0.00
   
   
  Node Results at 46:00:00 hrs:
  --------------------------------------------------------
                     Demand      Head  Pressure  Flouride
  Node                  gpm        ft       psi      mg/l
  --------------------------------------------------------
  33                   0.00   1000.00    433.30    0.9300
  i1                   0.24   1000.00    433.30    0.9300
  i2                   0.15   1000.00    433.30    0.9300
  i3                   0.30   1000.00    433.30    0.1390
  i4                   0.46   1000.00    433.30    1.0010
  34                   0.74   1000.00    433.30    0.6960
  src                 -1.89   1000.00      0.00    0.0000  Reservoir
   
   
  Link Results at 46:00:00 hrs:
  ----------------------------------------------
                       Flow  Velocity  Headloss
  Link                  gpm       fps   /1000ft
  ----------------------------------------------
  L1                 1.8901      0.01      0.00
  P1                 1.8900      0.01      0.00
  P2                 1.6473      0.01      0.00
  P3                 1.4991      0.01      0.00
  P4                 1.1957      0.01      0.00
  P5                 0.7401      0.00      0.00
   
   
  Node Results at 47:00:00 hrs:
  --------------------------------------------------------
                     Demand      Head  Pressure  Flouride
  Node                  gpm        ft       psi      mg/l
  --------------------------------------------------------
  33                   0.00   1000.00    433.30    0.9300
  i1                   0.19   1000.00    433.30    0.9300
  i2                   0.11   1000.00    433.30    0.9300
  i3                   0.23   1000.00    433.30    0.9300
  i4                   0.35   1000.00    433.30    1.0010
  34                   0.57   1000.00    433.30    1.0010
  src                 -1.45   1000.00      0.00    0.0000  Reservoir
   
   
  Link Results at 47:00:00 hrs:
  ----------------------------------------------
                       Flow  Velocity  Headloss
  Link                  gpm       fps   /1000ft
  ----------------------------------------------
  L1                 1.4499      0.01      0.00
  P1                 1.4500      0.01      0.00
  P2                 1.2638      0.01      0.00
  P3                 1.1501      0.01      0.00
  P4                 0.9173      0.01      0.00
  P5                 0.5678      0.00      0.00
   
   
  Node Results at 48:00:00 hrs:
  --------------------------------------------------------
                     Demand      Head  Pressure  Flouride
  Node                  gpm        ft       psi      mg/l
  --------------------------------------------------------
  33                   0.00   1000.00    433.30    0.1390
  i1                   0.16   1000.00    433.30    0.9300
  i2                   0.10   1000.00    433.30    0.9300
  i3                   0.20   1000.00    433.30    0.9300
  i4                   0.30   1000.00    433.30    0.8610
  34                   0.48   1000.00    433.30    1.0010
  src                 -1.23   1000.00      0.00    0.0000  Reservoir
   
   
  Link Results at 48:00:00 hrs:
  ----------------------------------------------
                       Flow  Velocity  Headloss
  Link                  gpm       fps   /1000ft
  ----------------------------------------------
  L1                 1.2300      0.01      0.00
  P1                 1.2300      0.01      0.00
  P2                 1.0721      0.01      0.00
  P3                 0.9756      0.01      0.00
  P4                 0.7782      0.00      0.00
  P5                 0.4817      0.00      0.00
   
   
  Node Results at 49:00:00 hrs:
  --------------------------------------------------------
                     Demand      Head  Pressure  Flouride
  Node                  gpm        ft       psi      mg/l
  --------------------------------------------------------
  33                   0.00   1000.00    433.30    0.1240
  i1                   0.26   1000.00    433.30    0.1390
  i2                   0.16   1000.00    433.30    0.9300
  i3                   0.33   1000.00    433.30    0.9300
  i4                   0.49   1000.00    433.30    0.2132
  34                   0.80   1000.00    433.30    1.0010
  src                 -2.05   1000.00      0.00    0.0000  Reservoir
   
   
  Link Results at 49:00:00 hrs:
  ----------------------------------------------
                       Flow  Velocity  Headloss
  Link                  gpm       fps   /1000ft
  ----------------------------------------------
  L1                 2.0500      0.01      0.00
  P1                 2.0500      0.01      0.00
  P2                 1.7868      0.01      0.00
  P3                 1.6260      0.01      0.00
  P4                 1.2969      0.01      0.00
  P5                 0.8028      0.01      0.00
   
   
  Node Results at 50:00:00 hrs:
  --------------------------------------------------------
                     Demand      Head  Pressure  Flouride
  Node                  gpm        ft       psi      mg/l
  --------------------------------------------------------
  33                   0.00   1000.00    433.30    0.1060
  i1                   0.20   1000.00    433.30    0.1060
  i2                   0.12   1000.00    433.30    0.9300
  i3                   0.25   1000.00    433.30    0.9300
  i4                   0.37   1000.00    433.30    0.2339
  34                   0.60   1000.00    433.30    1.0010
  src                 -1.54   1000.00      0.00    0.0000  Reservoir
   
   
  Link Results at 50:00:00 hrs:
  ----------------------------------------------
                       Flow  Velocity  Headloss
  Link                  gpm       fps   /1000ft
  ----------------------------------------------
  L1                 1.5400      0.01      0.00
  P1                 1.5400      0.01      0.00
  P2                 1.3422      0.01      0.00
  P3                 1.2215      0.01      0.00
  P4                 0.9743      0.01      0.00
  P5                 0.6030      0.00      0.00
   
   
  Node Results at 51:00:00 hrs:
  --------------------------------------------------------
                     Demand      Head  Pressure  Flouride
  Node                  gpm        ft       psi      mg/l
  --------------------------------------------------------
  33                   0.00   1000.00    433.30    0.0900
  i1                   0.16   1000.00    433.30    0.1060
  i2                   0.10   1000.00    433.30    0.1390
  i3                   0.20   1000.00    433.30    0.9300
  i4                   0.29   1000.00    433.30    0.1390
  34                   0.48   1000.00    433.30    1.0010
  src                 -1.22   1000.00      0.00    0.0000  Reservoir
   
   
  Link Results at 51:00:00 hrs:
  ----------------------------------------------
                       Flow  Velocity  Headloss
  Link                  gpm       fps   /1000ft
  ----------------------------------------------
  L1                 1.2199      0.01      0.00
  P1                 1.2200      0.01      0.00
  P2                 1.0633      0.01      0.00
  P3                 0.9677      0.01      0.00
  P4                 0.7718      0.00      0.00
  P5                 0.4777      0.00      0.00
   
   
  Node Results at 52:00:00 hrs:
  --------------------------------------------------------
                     Demand      Head  Pressure  Flouride
  Node                  gpm        ft       psi      mg/l
  --------------------------------------------------------
  33                   0.00   1000.00    433.30    0.1030
  i1                   0.17   1000.00    433.30    0.0900
  i2                   0.10   1000.00    433.30    0.1390
  i3                   0.21   1000.00    433.30    0.9300
  i4                   0.32   1000.00    433.30    0.9300
  34                   0.52   1000.00    433.30    1.0010
  src                 -1.32   1000.00      0.00    0.0000  Reservoir
   
   
  Link Results at 52:00:00 hrs:
  ----------------------------------------------
                       Flow  Velocity  Headloss
  Link                  gpm       fps   /1000ft
  ----------------------------------------------
  L1                 1.3200      0.01      0.00
  P1                 1.3200      0.01      0.00
  P2                 1.1505      0.01      0.00
  P3                 1.0470      0.01      0.00
  P4                 0.8351      0.01      0.00
  P5                 0.5169      0.00      0.00
   
   
  Node Results at 53:00:00 hrs:
  --------------------------------------------------------
                     Demand      Head  Pressure  Flouride
  Node                  gpm        ft       psi      mg/l
  --------------------------------------------------------
  33                   0.00   1000.00    433.30    0.1030
  i1                   0.16   1000.00    433.30    0.1030
  i2                   0.10   1000.00    433.30    0.1241
  i3                   0.20   1000.00    433.30    0.9300
  i4                   0.29   1000.00    433.30    0.9300
  34                   0.48   1000.00    433.30    0.9427
  src                 -1.22   1000.00      0.00    0.0000  Reservoir
   
   
  Link Results at 53:00:00 hrs:
  ----------------------------------------------
                       Flow  Velocity  Headloss
  Link                  gpm       fps   /1000ft
  ----------------------------------------------
  L1                 1.2201      0.01      0.00
  P1                 1.2200      0.01      0.00
  P2                 1.0633      0.01      0.00
  P3                 0.9677      0.01      0.00
  P4                 0.7718      0.00      0.00
  P5                 0.4777      0.00      0.00
   
   
  Node Results at 54:00:00 hrs:
  --------------------------------------------------------
                     Demand      Head  Pressure  Flouride
  Node                  gpm        ft       psi      mg/l
  --------------------------------------------------------
  33                   0.00   1000.00    433.30    0.1030
  i1                   0.16   1000.00    433.30    0.1030
  i2                   0.10   1000.00    433.30    0.1060
  i3                   0.20   1000.00    433.30    0.9300
  i4                   0.29   1000.00    433.30    0.9300
  34                   0.48   1000.00    433.30    0.8610
  src                 -1.22   1000.00      0.00    0.0000  Reservoir
   
   
  Link Results at 54:00:00 hrs:
  ----------------------------------------------
                       Flow  Velocity  Headloss
  Link                  gpm       fps   /1000ft
  ----------------------------------------------
  L1                 1.2199      0.01      0.00
  P1                 1.2200      0.01      0.00
  P2                 1.0633      0.01      0.00
  P3                 0.9677      0.01      0.00
  P4                 0.7718      0.00      0.00
  P5                 0.4777      0.00      0.00
   
   
  Node Results at 55:00:00 hrs:
  --------------------------------------------------------
                     Demand      Head  Pressure  Flouride
  Node                  gpm        ft       psi      mg/l
  --------------------------------------------------------
  33                   0.00   1000.00    433.30    0.8450
  i1                   0.24   1000.00    433.30    0.1030
  i2                   0.15   1000.00    433.30    0.0900
  i3                   0.30   1000.00    433.30    0.1390
  i4                   0.46   1000.00    433.30    0.9300
  34                   0.74   1000.00    433.30    0.2135
  src                 -1.89   1000.00      0.00    0.0000  Reservoir
   
   
  Link Results at 55:00:00 hrs:
  ----------------------------------------------
                       Flow  Velocity  Headloss
  Link                  gpm       fps   /1000ft
  ----------------------------------------------
  L1                 1.8900      0.01      0.00
  P1                 1.8900      0.01      0.00
  P2                 1.6473      0.01      0.00
  P3                 1.4991      0.01      0.00
  P4                 1.1957      0.01      0.00
  P5                 0.7401      0.00      0.00
   