  Page 1                                    Wed Aug 07 13:31:10 2019

  ******************************************************************
  *                           E P A N E T                          *
  *                   Hydraulic and Water Quality                  *
  *                   Analysis for Pipe Networks                   *
  *                         Version 2.2                            *
  ******************************************************************
  
  Analysis begun Wed Aug 07 13:31:10 2019

   
  Node Results at 0:00:00 hrs:
  --------------------------------------------------------
                     Demand      Head  Pressure  Flouride
  Node                  gpm        ft       psi      mg/l
  --------------------------------------------------------
  33                   0.00   1000.00    433.30    0.1000
  34                   1.89   1000.00    433.30    0.1000
  src                 -1.89   1000.00      0.00    0.0000  Reservoir
   
   
  Link Results at 0:00:00 hrs:
  ----------------------------------------------
                       Flow  Velocity  Headloss
  Link                  gpm       fps   /1000ft
  ----------------------------------------------
  L1                 1.8900      0.01      0.00
  P1                 1.8900      0.01      0.00
   
   
  Node Results at 1:00:00 hrs:
  --------------------------------------------------------
                     Demand      Head  Pressure  Flouride
  Node                  gpm        ft       psi      mg/l
  --------------------------------------------------------
  33                   0.00   1000.00    433.30    0.1000
  34                   1.56   1000.00    433.30    0.0973
  src                 -1.56   1000.00      0.00    0.0000  Reservoir
   
   
  Link Results at 1:00:00 hrs:
  ----------------------------------------------
                       Flow  Velocity  Headloss
  Link                  gpm       fps   /1000ft
  ----------------------------------------------
  L1                 1.5600      0.01      0.00
  P1                 1.5600      0.01      0.00
   
   
  Node Results at 2:00:00 hrs:
  --------------------------------------------------------
                     Demand      Head  Pressure  Flouride
  Node                  gpm        ft       psi      mg/l
  --------------------------------------------------------
  33                   0.00   1000.00    433.30    0.0971
  34                   1.45   1000.00    433.30    0.0947
  src                 -1.45   1000.00      0.00    0.0000  Reservoir
   
   
  Link Results at 2:00:00 hrs:
  ----------------------------------------------
                       Flow  Velocity  Headloss
  Link                  gpm       fps   /1000ft
  ----------------------------------------------
  L1                 1.4501      0.01      0.00
  P1                 1.4500      0.01      0.00
   
   
  Node Results at 3:00:00 hrs:
  --------------------------------------------------------
                     Demand      Head  Pressure  Flouride
  Node                  gpm        ft       psi      mg/l
  --------------------------------------------------------
  33                   0.00   1000.00    433.30    0.0942
  34                   1.45   1000.00    433.30    0.0921
  src                 -1.45   1000.00      0.00    0.0000  Reservoir
   
   
  Link Results at 3:00:00 hrs:
  ----------------------------------------------
                       Flow  Velocity  Headloss
  Link                  gpm       fps   /1000ft
  ----------------------------------------------
  L1                 1.4499      0.01      0.00
  P1                 1.4500      0.01      0.00
   
   
  Node Results at 4:00:00 hrs:
  --------------------------------------------------------
                     Demand      Head  Pressure  Flouride
  Node                  gpm        ft       psi      mg/l
  --------------------------------------------------------
  33                   0.00   1000.00    433.30    0.0913
  34                   1.34   1000.00    433.30    0.0895
  src                 -1.34   1000.00      0.00    0.0000  Reservoir
   
   
  Link Results at 4:00:00 hrs:
  ----------------------------------------------
                       Flow  Velocity  Headloss
  Link                  gpm       fps   /1000ft
  ----------------------------------------------
  L1                 1.3401      0.01      0.00
  P1                 1.3400      0.01      0.00
   
   
  Node Results at 5:00:00 hrs:
  --------------------------------------------------------
                     Demand      Head  Pressure  Flouride
  Node                  gpm        ft       psi      mg/l
  --------------------------------------------------------
  33                   0.00   1000.00    433.30    0.0884
  34                   1.78   1000.00    433.30    0.0870
  src                 -1.78   1000.00      0.00    0.0000  Reservoir
   
   
  Link Results at 5:00:00 hrs:
  ----------------------------------------------
                       Flow  Velocity  Headloss
  Link                  gpm       fps   /1000ft
  ----------------------------------------------
  L1                 1.7800      0.01      0.00
  P1                 1.7800      0.01      0.00
   
   
  Node Results at 6:00:00 hrs:
  --------------------------------------------------------
                     Demand      Head  Pressure  Flouride
  Node                  gpm        ft       psi      mg/l
  --------------------------------------------------------
  33                   0.00   1000.00    433.30    0.0855
  34                   1.92   1000.00    433.30    0.0845
  src                 -1.92   1000.00      0.00    0.0000  Reservoir
   
   
  Link Results at 6:00:00 hrs:
  ----------------------------------------------
                       Flow  Velocity  Headloss
  Link                  gpm       fps   /1000ft
  ----------------------------------------------
  L1                 1.9201      0.01      0.00
  P1                 1.9200      0.01      0.00
   
   
  Node Results at 7:00:00 hrs:
  --------------------------------------------------------
                     Demand      Head  Pressure  Flouride
  Node                  gpm        ft       psi      mg/l
  --------------------------------------------------------
  33                   0.00   1000.00    433.30    0.0824
  34                   1.00   1000.00    433.30    0.0820
  src                 -1.00   1000.00      0.00    0.0000  Reservoir
   
   
  Link Results at 7:00:00 hrs:
  ----------------------------------------------
                       Flow  Velocity  Headloss
  Link                  gpm       fps   /1000ft
  ----------------------------------------------
  L1                 1.0000      0.01      0.00
  P1                 1.0000      0.01      0.00
   
   
  Node Results at 8:00:00 hrs:
  --------------------------------------------------------
                     Demand      Head  Pressure  Flouride
  Node                  gpm        ft       psi      mg/l
  --------------------------------------------------------
  33                   0.00   1000.00    433.30    0.0797
  34                   1.00   1000.00    433.30    0.0797
  src                 -1.00   1000.00      0.00    0.0000  Reservoir
   
   
  Link Results at 8:00:00 hrs:
  ----------------------------------------------
                       Flow  Velocity  Headloss
  Link                  gpm       fps   /1000ft
  ----------------------------------------------
  L1                 1.0000      0.01      0.00
  P1                 1.0000      0.01      0.00
   
   
  Node Results at 9:00:00 hrs:
  --------------------------------------------------------
                     Demand      Head  Pressure  Flouride
  Node                  gpm        ft       psi      mg/l
  --------------------------------------------------------
  33                   0.00   1000.00    433.30    0.0775
  34                   2.01   1000.00    433.30    0.0775
  src                 -2.01   1000.00      0.00    0.0000  Reservoir
   
   
  Link Results at 9:00:00 hrs:
  ----------------------------------------------
                       Flow  Velocity  Headloss
  Link                  gpm       fps   /1000ft
  ----------------------------------------------
  L1                 2.0100      0.01      0.00
  P1                 2.0100      0.01      0.00
   
   
  Node Results at 10:00:00 hrs:
  --------------------------------------------------------
                     Demand      Head  Pressure  Flouride
  Node                  gpm        ft       psi      mg/l
  --------------------------------------------------------
  33                   0.00   1000.00    433.30    0.0754
  34                   3.69   1000.00    433.30    0.0751
  src                 -3.69   1000.00      0.00    0.0000  Reservoir
   
   
  Link Results at 10:00:00 hrs:
  ----------------------------------------------
                       Flow  Velocity  Headloss
  Link                  gpm       fps   /1000ft
  ----------------------------------------------
  L1                 3.6899      0.02      0.00
  P1                 3.6900      0.02      0.00
   
   
  Node Results at 11:00:00 hrs:
  --------------------------------------------------------
                     Demand      Head  Pressure  Flouride
  Node                  gpm        ft       psi      mg/l
  --------------------------------------------------------
  33                   0.00   1000.00    433.30    0.0733
  34                   1.45   1000.00    433.30    0.0728
  src                 -1.45   1000.00      0.00    0.0000  Reservoir
   
   
  Link Results at 11:00:00 hrs:
  ----------------------------------------------
                       Flow  Velocity  Headloss
  Link                  gpm       fps   /1000ft
  ----------------------------------------------
  L1                 1.4500      0.01      0.00
  P1                 1.4500      0.01      0.00
   
   
  Node Results at 12:00:00 hrs:
  --------------------------------------------------------
                     Demand      Head  Pressure  Flouride
  Node                  gpm        ft       psi      mg/l
  --------------------------------------------------------
  33                   0.00   1000.00    433.30    0.0700
  34                   1.38   1000.00    433.30    0.0706
  src                 -1.38   1000.00      0.00    0.0000  Reservoir
   
   
  Link Results at 12:00:00 hrs:
  ----------------------------------------------
                       Flow  Velocity  Headloss
  Link                  gpm       fps   /1000ft
  ----------------------------------------------
  L1                 1.3800      0.01      0.00
  P1                 1.3800      0.01      0.00
   
   
  Node Results at 13:00:00 hrs:
  --------------------------------------------------------
                     Demand      Head  Pressure  Flouride
  Node                  gpm        ft       psi      mg/l
  --------------------------------------------------------
  33                   0.00   1000.00    433.30    0.0680
  34                   1.02   1000.00    433.30    0.0685
  src                 -1.02   1000.00      0.00    0.0000  Reservoir
   
   
  Link Results at 13:00:00 hrs:
  ----------------------------------------------
                       Flow  Velocity  Headloss
  Link                  gpm       fps   /1000ft
  ----------------------------------------------
  L1                 1.0200      0.01      0.00
  P1                 1.0200      0.01      0.00
   
   
  Node Results at 14:00:00 hrs:
  --------------------------------------------------------
                     Demand      Head  Pressure  Flouride
  Node                  gpm        ft       psi      mg/l
  --------------------------------------------------------
  33                   0.00   1000.00    433.30    0.0661
  34                   2.14   1000.00    433.30    0.0665
  src                 -2.14   1000.00      0.00    0.0000  Reservoir
   
   
  Link Results at 14:00:00 hrs:
  ----------------------------------------------
                       Flow  Velocity  Headloss
  Link                  gpm       fps   /1000ft
  ----------------------------------------------
  L1                 2.1400      0.01      0.00
  P1                 2.1400      0.01      0.00
   
   
  Node Results at 15:00:00 hrs:
  --------------------------------------------------------
                     Demand      Head  Pressure  Flouride
  Node                  gpm        ft       psi      mg/l
  --------------------------------------------------------
  33                   0.00   1000.00    433.30    0.0643
  34                   0.92   1000.00    433.30    0.0645
  src                 -0.92   1000.00      0.00    0.0000  Reservoir
   
   
  Link Results at 15:00:00 hrs:
  ----------------------------------------------
                       Flow  Velocity  Headloss
  Link                  gpm       fps   /1000ft
  ----------------------------------------------
  L1                 0.9200      0.01      0.00
  P1                 0.9200      0.01      0.00
   
   
  Node Results at 16:00:00 hrs:
  --------------------------------------------------------
                     Demand      Head  Pressure  Flouride
  Node                  gpm        ft       psi      mg/l
  --------------------------------------------------------
  33                   0.00   1000.00    433.30    0.0625
  34                   0.46   1000.00    433.30    0.0627
  src                 -0.46   1000.00      0.00    0.0000  Reservoir
   
   
  Link Results at 16:00:00 hrs:
  ----------------------------------------------
                       Flow  Velocity  Headloss
  Link                  gpm       fps   /1000ft
  ----------------------------------------------
  L1                 0.4599      0.00      0.00
  P1                 0.4600      0.00      0.00
   
   
  Node Results at 17:00:00 hrs:
  --------------------------------------------------------
                     Demand      Head  Pressure  Flouride
  Node                  gpm        ft       psi      mg/l
  --------------------------------------------------------
  33                   0.00   1000.00    433.30    0.0608
  34                   1.17   1000.00    433.30    0.0610
  src                 -1.17   1000.00      0.00    0.0000  Reservoir
   
   
  Link Results at 17:00:00 hrs:
  ----------------------------------------------
                       Flow  Velocity  Headloss
  Link                  gpm       fps   /1000ft
  ----------------------------------------------
  L1                 1.1702      0.01      0.00
  P1                 1.1700      0.01      0.00
   
   
  Node Results at 18:00:00 hrs:
  --------------------------------------------------------
                     Demand      Head  Pressure  Flouride
  Node                  gpm        ft       psi      mg/l
  --------------------------------------------------------
  33                   0.00   1000.00    433.30    0.0592
  34                   0.56   1000.00    433.30    0.0592
  src                 -0.56   1000.00      0.00    0.0000  Reservoir
   
   
  Link Results at 18:00:00 hrs:
  ----------------------------------------------
                       Flow  Velocity  Headloss
  Link                  gpm       fps   /1000ft
  ----------------------------------------------
  L1                 0.5601      0.00      0.00
  P1                 0.5600      0.00      0.00
   
   
  Node Results at 19:00:00 hrs:
  --------------------------------------------------------
                     Demand      Head  Pressure  Flouride
  Node                  gpm        ft       psi      mg/l
  --------------------------------------------------------
  33                   0.00   1000.00    433.30    0.0576
  34                   1.00   1000.00    433.30    0.0576
  src                 -1.00   1000.00      0.00    0.0000  Reservoir
   
   
  Link Results at 19:00:00 hrs:
  ----------------------------------------------
                       Flow  Velocity  Headloss
  Link                  gpm       fps   /1000ft
  ----------------------------------------------
  L1                 1.0001      0.01      0.00
  P1                 1.0000      0.01      0.00
   
   
  Node Results at 20:00:00 hrs:
  --------------------------------------------------------
                     Demand      Head  Pressure  Flouride
  Node                  gpm        ft       psi      mg/l
  --------------------------------------------------------
  33                   0.00   1000.00    433.30    0.0561
  34                   1.89   1000.00    433.30    0.0560
  src                 -1.89   1000.00      0.00    0.0000  Reservoir
   
   
  Link Results at 20:00:00 hrs:
  ----------------------------------------------
                       Flow  Velocity  Headloss
  Link                  gpm       fps   /1000ft
  ----------------------------------------------
  L1                 1.8900      0.01      0.00
  P1                 1.8900      0.01      0.00
   
   
  Node Results at 21:00:00 hrs:
  --------------------------------------------------------
                     Demand      Head  Pressure  Flouride
  Node                  gpm        ft       psi      mg/l
  --------------------------------------------------------
  33                   0.00   1000.00    433.30    0.0546
  34                   2.34   1000.00    433.30    0.0543
  src                 -2.34   1000.00      0.00    0.0000  Reservoir
   
   
  Link Results at 21:00:00 hrs:
  ----------------------------------------------
                       Flow  Velocity  Headloss
  Link                  gpm       fps   /1000ft
  ----------------------------------------------
  L1                 2.3400      0.01      0.00
  P1                 2.3400      0.01      0.00
   
   
  Node Results at 22:00:00 hrs:
  --------------------------------------------------------
                     Demand      Head  Pressure  Flouride
  Node                  gpm        ft       psi      mg/l
  --------------------------------------------------------
  33                   0.00   1000.00    433.30    0.0530
  34                   1.78   1000.00    433.30    0.0527
  src                 -1.78   1000.00      0.00    0.0000  Reservoir
   
   
  Link Results at 22:00:00 hrs:
  ----------------------------------------------
                       Flow  Velocity  Headloss
  Link                  gpm       fps   /1000ft
  ----------------------------------------------
  L1                 1.7800      0.01      0.00
  P1                 1.7800      0.01      0.00
   
   
  Node Results at 23:00:00 hrs:
  --------------------------------------------------------
                     Demand      Head  Pressure  Flouride
  Node                  gpm        ft       psi      mg/l
  --------------------------------------------------------
  33                   0.00   1000.00    433.30    0.3654
  34                   1.89   1000.00    433.30    0.0512
  src                 -1.89   1000.00      0.00    0.0000  Reservoir
   
   
  Link Results at 23:00:00 hrs:
  ----------------------------------------------
                       Flow  Velocity  Headloss
  Link                  gpm       fps   /1000ft
  ----------------------------------------------
  L1                 1.8900      0.01      0.00
  P1                 1.8900      0.01      0.00
   
   
  Node Results at 24:00:00 hrs:
  --------------------------------------------------------
                     Demand      Head  Pressure  Flouride
  Node                  gpm        ft       psi      mg/l
  --------------------------------------------------------
  33                   0.00   1000.00    433.30    0.3936
  34                   0.90   1000.00    433.30    0.0497
  src                 -0.90   1000.00      0.00    0.0000  Reservoir
   
   
  Link Results at 24:00:00 hrs:
  ----------------------------------------------
                       Flow  Velocity  Headloss
  Link                  gpm       fps   /1000ft
  ----------------------------------------------
  L1                 0.9001      0.01      0.00
  P1                 0.9000      0.01      0.00
   
   
  Node Results at 25:00:00 hrs:
  --------------------------------------------------------
                     Demand      Head  Pressure  Flouride
  Node                  gpm        ft       psi      mg/l
  --------------------------------------------------------
  33                   0.00   1000.00    433.30    0.4034
  34                   1.65   1000.00    433.30    0.0484
  src                 -1.65   1000.00      0.00    0.0000  Reservoir
   
   
  Link Results at 25:00:00 hrs:
  ----------------------------------------------
                       Flow  Velocity  Headloss
  Link                  gpm       fps   /1000ft
  ----------------------------------------------
  L1                 1.6500      0.01      0.00
  P1                 1.6500      0.01      0.00
   
   
  Node Results at 26:00:00 hrs:
  --------------------------------------------------------
                     Demand      Head  Pressure  Flouride
  Node                  gpm        ft       psi      mg/l
  --------------------------------------------------------
  33                   0.00   1000.00    433.30    0.4029
  34                   1.54   1000.00    433.30    0.0470
  src                 -1.54   1000.00      0.00    0.0000  Reservoir
   
   
  Link Results at 26:00:00 hrs:
  ----------------------------------------------
                       Flow  Velocity  Headloss
  Link                  gpm       fps   /1000ft
  ----------------------------------------------
  L1                 1.5400      0.01      0.00
  P1                 1.5400      0.01      0.00
   
   
  Node Results at 27:00:00 hrs:
  --------------------------------------------------------
                     Demand      Head  Pressure  Flouride
  Node                  gpm        ft       psi      mg/l
  --------------------------------------------------------
  33                   0.00   1000.00    433.30    0.4108
  34                   1.09   1000.00    433.30    0.0457
  src                 -1.09   1000.00      0.00    0.0000  Reservoir
   
   
  Link Results at 27:00:00 hrs:
  ----------------------------------------------
                       Flow  Velocity  Headloss
  Link                  gpm       fps   /1000ft
  ----------------------------------------------
  L1                 1.0900      0.01      0.00
  P1                 1.0900      0.01      0.00
   
   
  Node Results at 28:00:00 hrs:
  --------------------------------------------------------
                     Demand      Head  Pressure  Flouride
  Node                  gpm        ft       psi      mg/l
  --------------------------------------------------------
  33                   0.00   1000.00    433.30    0.4089
  34                   1.32   1000.00    433.30    0.0444
  src                 -1.32   1000.00      0.00    0.0000  Reservoir
   
   
  Link Results at 28:00:00 hrs:
  ----------------------------------------------
                       Flow  Velocity  Headloss
  Link                  gpm       fps   /1000ft
  ----------------------------------------------
  L1                 1.3199      0.01      0.00
  P1                 1.3200      0.01      0.00
   
   
  Node Results at 29:00:00 hrs:
  --------------------------------------------------------
                     Demand      Head  Pressure  Flouride
  Node                  gpm        ft       psi      mg/l
  --------------------------------------------------------
  33                   0.00   1000.00    433.30    0.4016
  34                   1.59   1000.00    433.30    0.0432
  src                 -1.59   1000.00      0.00    0.0000  Reservoir
   
   
  Link Results at 29:00:00 hrs:
  ----------------------------------------------
                       Flow  Velocity  Headloss
  Link                  gpm       fps   /1000ft
  ----------------------------------------------
  L1                 1.5900      0.01      0.00
  P1                 1.5900      0.01      0.00
   
   
  Node Results at 30:00:00 hrs:
  --------------------------------------------------------
                     Demand      Head  Pressure  Flouride
  Node                  gpm        ft       psi      mg/l
  --------------------------------------------------------
  33                   0.00   1000.00    433.30    0.0707
  34                   1.49   1000.00    433.30    0.0420
  src                 -1.49   1000.00      0.00    0.0000  Reservoir
   
   
  Link Results at 30:00:00 hrs:
  ----------------------------------------------
                       Flow  Velocity  Headloss
  Link                  gpm       fps   /1000ft
  ----------------------------------------------
  L1                 1.4901      0.01      0.00
  P1                 1.4900      0.01      0.00
   
   
  Node Results at 31:00:00 hrs:
  --------------------------------------------------------
                     Demand      Head  Pressure  Flouride
  Node                  gpm        ft       psi      mg/l
  --------------------------------------------------------
  33                   0.00   1000.00    433.30    0.0688
  34                   2.58   1000.00    433.30    0.0408
  src                 -2.58   1000.00      0.00    0.0000  Reservoir
   
   
  Link Results at 31:00:00 hrs:
  ----------------------------------------------
                       Flow  Velocity  Headloss
  Link                  gpm       fps   /1000ft
  ----------------------------------------------
  L1                 2.5801      0.02      0.00
  P1                 2.5800      0.02      0.00
   
   
  Node Results at 32:00:00 hrs:
  --------------------------------------------------------
                     Demand      Head  Pressure  Flouride
  Node                  gpm        ft       psi      mg/l
  --------------------------------------------------------
  33                   0.00   1000.00    433.30    0.0669
  34                   1.68   1000.00    433.30    0.0396
  src                 -1.68   1000.00      0.00    0.0000  Reservoir
   
   
  Link Results at 32:00:00 hrs:
  ----------------------------------------------
                       Flow  Velocity  Headloss
  Link                  gpm       fps   /1000ft
  ----------------------------------------------
  L1                 1.6800      0.01      0.00
  P1                 1.6800      0.01      0.00
   
   
  Node Results at 33:00:00 hrs:
  --------------------------------------------------------
                     Demand      Head  Pressure  Flouride
  Node                  gpm        ft       psi      mg/l
  --------------------------------------------------------
  33                   0.00   1000.00    433.30    0.0649
  34                   2.01   1000.00    433.30    0.2706
  src                 -2.01   1000.00      0.00    0.0000  Reservoir
   
   
  Link Results at 33:00:00 hrs:
  ----------------------------------------------
                       Flow  Velocity  Headloss
  Link                  gpm       fps   /1000ft
  ----------------------------------------------
  L1                 2.0100      0.01      0.00
  P1                 2.0100      0.01      0.00
   
   
  Node Results at 34:00:00 hrs:
  --------------------------------------------------------
                     Demand      Head  Pressure  Flouride
  Node                  gpm        ft       psi      mg/l
  --------------------------------------------------------
  33                   0.00   1000.00    433.30    0.0631
  34                   1.68   1000.00    433.30    0.2915
  src                 -1.68   1000.00      0.00    0.0000  Reservoir
   
   
  Link Results at 34:00:00 hrs:
  ----------------------------------------------
                       Flow  Velocity  Headloss
  Link                  gpm       fps   /1000ft
  ----------------------------------------------
  L1                 1.6800      0.01      0.00
  P1                 1.6800      0.01      0.00
   
   
  Node Results at 35:00:00 hrs:
  --------------------------------------------------------
                     Demand      Head  Pressure  Flouride
  Node                  gpm        ft       psi      mg/l
  --------------------------------------------------------
  33                   0.00   1000.00    433.30    0.2651
  34                   1.45   1000.00    433.30    0.3039
  src                 -1.45   1000.00      0.00    0.0000  Reservoir
   
   
  Link Results at 35:00:00 hrs:
  ----------------------------------------------
                       Flow  Velocity  Headloss
  Link                  gpm       fps   /1000ft
  ----------------------------------------------
  L1                 1.4501      0.01      0.00
  P1                 1.4500      0.01      0.00
   
   
  Node Results at 36:00:00 hrs:
  --------------------------------------------------------
                     Demand      Head  Pressure  Flouride
  Node                  gpm        ft       psi      mg/l
  --------------------------------------------------------
  33                   0.00   1000.00    433.30    0.3952
  34                   1.56   1000.00    433.30    0.2954
  src                 -1.56   1000.00      0.00    0.0000  Reservoir
   
   
  Link Results at 36:00:00 hrs:
  ----------------------------------------------
                       Flow  Velocity  Headloss
  Link                  gpm       fps   /1000ft
  ----------------------------------------------
  L1                 1.5600      0.01      0.00
  P1                 1.5600      0.01      0.00
   
   
  Node Results at 37:00:00 hrs:
  --------------------------------------------------------
                     Demand      Head  Pressure  Flouride
  Node                  gpm        ft       psi      mg/l
  --------------------------------------------------------
  33                   0.00   1000.00    433.30    0.3842
  34                   1.73   1000.00    433.30    0.3064
  src                 -1.73   1000.00      0.00    0.0000  Reservoir
   
   
  Link Results at 37:00:00 hrs:
  ----------------------------------------------
                       Flow  Velocity  Headloss
  Link                  gpm       fps   /1000ft
  ----------------------------------------------
  L1                 1.7299      0.01      0.00
  P1                 1.7300      0.01      0.00
   
   
  Node Results at 38:00:00 hrs:
  --------------------------------------------------------
                     Demand      Head  Pressure  Flouride
  Node                  gpm        ft       psi      mg/l
  --------------------------------------------------------
  33                   0.00   1000.00    433.30    0.4116
  34                   1.37   1000.00    433.30    0.2977
  src                 -1.37   1000.00      0.00    0.0000  Reservoir
   
   
  Link Results at 38:00:00 hrs:
  ----------------------------------------------
                       Flow  Velocity  Headloss
  Link                  gpm       fps   /1000ft
  ----------------------------------------------
  L1                 1.3700      0.01      0.00
  P1                 1.3700      0.01      0.00
   
   
  Node Results at 39:00:00 hrs:
  --------------------------------------------------------
                     Demand      Head  Pressure  Flouride
  Node                  gpm        ft       psi      mg/l
  --------------------------------------------------------
  33                   0.00   1000.00    433.30    0.0870
  34                   0.92   1000.00    433.30    0.2970
  src                 -0.92   1000.00      0.00    0.0000  Reservoir
   
   
  Link Results at 39:00:00 hrs:
  ----------------------------------------------
                       Flow  Velocity  Headloss
  Link                  gpm       fps   /1000ft
  ----------------------------------------------
  L1                 0.9199      0.01      0.00
  P1                 0.9200      0.01      0.00
   
   
  Node Results at 40:00:00 hrs:
  --------------------------------------------------------
                     Demand      Head  Pressure  Flouride
  Node                  gpm        ft       psi      mg/l
  --------------------------------------------------------
  33                   0.00   1000.00    433.30    0.0846
  34                   1.02   1000.00    433.30    0.0524
  src                 -1.02   1000.00      0.00    0.0000  Reservoir
   
   
  Link Results at 40:00:00 hrs:
  ----------------------------------------------
                       Flow  Velocity  Headloss
  Link                  gpm       fps   /1000ft
  ----------------------------------------------
  L1                 1.0201      0.01      0.00
  P1                 1.0200      0.01      0.00
   
   
  Node Results at 41:00:00 hrs:
  --------------------------------------------------------
                     Demand      Head  Pressure  Flouride
  Node                  gpm        ft       psi      mg/l
  --------------------------------------------------------
  33                   0.00   1000.00    433.30    0.0823
  34                   0.69   1000.00    433.30    0.0510
  src                 -0.69   1000.00      0.00    0.0000  Reservoir
   
   
  Link Results at 41:00:00 hrs:
  ----------------------------------------------
                       Flow  Velocity  Headloss
  Link                  gpm       fps   /1000ft
  ----------------------------------------------
  L1                 0.6900      0.00      0.00
  P1                 0.6900      0.00      0.00
   
   
  Node Results at 42:00:00 hrs:
  --------------------------------------------------------
                     Demand      Head  Pressure  Flouride
  Node                  gpm        ft       psi      mg/l
  --------------------------------------------------------
  33                   0.00   1000.00    433.30    0.0800
  34                   0.77   1000.00    433.30    0.0496
  src                 -0.77   1000.00      0.00    0.0000  Reservoir
   
   
  Link Results at 42:00:00 hrs:
  ----------------------------------------------
                       Flow  Velocity  Headloss
  Link                  gpm       fps   /1000ft
  ----------------------------------------------
  L1                 0.7700      0.00      0.00
  P1                 0.7700      0.00      0.00
   
   
  Node Results at 43:00:00 hrs:
  --------------------------------------------------------
                     Demand      Head  Pressure  Flouride
  Node                  gpm        ft       psi      mg/l
  --------------------------------------------------------
  33                   0.00   1000.00    433.30    0.0779
  34                   1.11   1000.00    433.30    0.0482
  src                 -1.11   1000.00      0.00    0.0000  Reservoir
   
   
  Link Results at 43:00:00 hrs:
  ----------------------------------------------
                       Flow  Velocity  Headloss
  Link                  gpm       fps   /1000ft
  ----------------------------------------------
  L1                 1.1099      0.01      0.00
  P1                 1.1100      0.01      0.00
   
   
  Node Results at 44:00:00 hrs:
  --------------------------------------------------------
                     Demand      Head  Pressure  Flouride
  Node                  gpm        ft       psi      mg/l
  --------------------------------------------------------
  33                   0.00   1000.00    433.30    0.0758
  34                   1.68   1000.00    433.30    0.0469
  src                 -1.68   1000.00      0.00    0.0000  Reservoir
   
   
  Link Results at 44:00:00 hrs:
  ----------------------------------------------
                       Flow  Velocity  Headloss
  Link                  gpm       fps   /1000ft
  ----------------------------------------------
  L1                 1.6800      0.01      0.00
  P1                 1.6800      0.01      0.00
   
   
  Node Results at 45:00:00 hrs:
  --------------------------------------------------------
                     Demand      Head  Pressure  Flouride
  Node                  gpm        ft       psi      mg/l
  --------------------------------------------------------
  33                   0.00   1000.00    433.30    0.0738
  34                   2.01   1000.00    433.30    0.0456
  src                 -2.01   1000.00      0.00    0.0000  Reservoir
   
   
  Link Results at 45:00:00 hrs:
  ----------------------------------------------
                       Flow  Velocity  Headloss
  Link                  gpm       fps   /1000ft
  ----------------------------------------------
  L1                 2.0100      0.01      0.00
  P1                 2.0100      0.01      0.00
   
   
  Node Results at 46:00:00 hrs:
  --------------------------------------------------------
                     Demand      Head  Pressure  Flouride
  Node                  gpm        ft       psi      mg/l
  --------------------------------------------------------
  33                   0.00   1000.00    433.30    0.0717
  34                   1.89   1000.00    433.30    0.0443
  src                 -1.89   1000.00      0.00    0.0000  Reservoir
   
   
  Link Results at 46:00:00 hrs:
  ----------------------------------------------
                       Flow  Velocity  Headloss
  Link                  gpm       fps   /1000ft
  ----------------------------------------------
  L1                 1.8901      0.01      0.00
  P1                 1.8900      0.01      0.00
   
   
  Node Results at 47:00:00 hrs:
  --------------------------------------------------------
                     Demand      Head  Pressure  Flouride
  Node                  gpm        ft       psi      mg/l
  --------------------------------------------------------
  33                   0.00   1000.00    433.30    0.0697
  34                   1.45   1000.00    433.30    0.1861
  src                 -1.45   1000.00      0.00    0.0000  Reservoir
   
   
  Link Results at 47:00:00 hrs:
  ----------------------------------------------
                       Flow  Velocity  Headloss
  Link                  gpm       fps   /1000ft
  ----------------------------------------------
  L1                 1.4499      0.01      0.00
  P1                 1.4500      0.01      0.00
   
   
  Node Results at 48:00:00 hrs:
  --------------------------------------------------------
                     Demand      Head  Pressure  Flouride
  Node                  gpm        ft       psi      mg/l
  --------------------------------------------------------
  33                   0.00   1000.00    433.30    0.3277
  34                   1.23   1000.00    433.30    0.2775
  src                 -1.23   1000.00      0.00    0.0000  Reservoir
   
   
  Link Results at 48:00:00 hrs:
  ----------------------------------------------
                       Flow  Velocity  Headloss
  Link                  gpm       fps   /1000ft
  ----------------------------------------------
  L1                 1.2300      0.01      0.00
  P1                 1.2300      0.01      0.00
   
   
  Node Results at 49:00:00 hrs:
  --------------------------------------------------------
                     Demand      Head  Pressure  Flouride
  Node                  gpm        ft       psi      mg/l
  --------------------------------------------------------
  33                   0.00   1000.00    433.30    0.3898
  34                   2.05   1000.00    433.30    0.2698
  src                 -2.05   1000.00      0.00    0.0000  Reservoir
   
   
  Link Results at 49:00:00 hrs:
  ----------------------------------------------
                       Flow  Velocity  Headloss
  Link                  gpm       fps   /1000ft
  ----------------------------------------------
  L1                 2.0500      0.01      0.00
  P1                 2.0500      0.01      0.00
   
   
  Node Results at 50:00:00 hrs:
  --------------------------------------------------------
                     Demand      Head  Pressure  Flouride
  Node                  gpm        ft       psi      mg/l
  --------------------------------------------------------
  33                   0.00   1000.00    433.30    0.3939
  34                   1.54   1000.00    433.30    0.2890
  src                 -1.54   1000.00      0.00    0.0000  Reservoir
   
   
  Link Results at 50:00:00 hrs:
  ----------------------------------------------
                       Flow  Velocity  Headloss
  Link                  gpm       fps   /1000ft
  ----------------------------------------------
  L1                 1.5400      0.01      0.00
  P1                 1.5400      0.01      0.00
   
   
  Node Results at 51:00:00 hrs:
  --------------------------------------------------------
                     Demand      Head  Pressure  Flouride
  Node                  gpm        ft       psi      mg/l
  --------------------------------------------------------
  33                   0.00   1000.00    433.30    0.4121
  34                   1.22   1000.00    433.30    0.0612
  src                 -1.22   1000.00      0.00    0.0000  Reservoir
   
   
  Link Results at 51:00:00 hrs:
  ----------------------------------------------
                       Flow  Velocity  Headloss
  Link                  gpm       fps   /1000ft
  ----------------------------------------------
  L1                 1.2199      0.01      0.00
  P1                 1.2200      0.01      0.00
   
   
  Node Results at 52:00:00 hrs:
  --------------------------------------------------------
                     Demand      Head  Pressure  Flouride
  Node                  gpm        ft       psi      mg/l
  --------------------------------------------------------
  33                   0.00   1000.00    433.30    0.4108
  34                   1.32   1000.00    433.30    0.0595
  src                 -1.32   1000.00      0.00    0.0000  Reservoir
   
   
  Link Results at 52:00:00 hrs:
  ----------------------------------------------
                       Flow  Velocity  Headloss
  Link                  gpm       fps   /1000ft
  ----------------------------------------------
  L1                 1.3200      0.01      0.00
  P1                 1.3200      0.01      0.00
   
   
  Node Results at 53:00:00 hrs:
  --------------------------------------------------------
                     Demand      Head  Pressure  Flouride
  Node                  gpm        ft       psi      mg/l
  --------------------------------------------------------
  33                   0.00   1000.00    433.30    0.4006
  34                   1.22   1000.00    433.30    0.0578
  src                 -1.22   1000.00      0.00    0.0000  Reservoir
   
   
  Link Results at 53:00:00 hrs:
  ----------------------------------------------
                       Flow  Velocity  Headloss
  Link                  gpm       fps   /1000ft
  ----------------------------------------------
  L1                 1.2201      0.01      0.00
  P1                 1.2200      0.01      0.00
   
   
  Node Results at 54:00:00 hrs:
  --------------------------------------------------------
                     Demand      Head  Pressure  Flouride
  Node                  gpm        ft       psi      mg/l
  --------------------------------------------------------
  33                   0.00   1000.00    433.30    0.3813
  34                   1.22   1000.00    433.30    0.0562
  src                 -1.22   1000.00      0.00    0.0000  Reservoir
   
   
  Link Results at 54:00:00 hrs:
  ----------------------------------------------
                       Flow  Velocity  Headloss
  Link                  gpm       fps   /1000ft
  ----------------------------------------------
  L1                 1.2199      0.01      0.00
  P1                 1.2200      0.01      0.00
   
   
  Node Results at 55:00:00 hrs:
  --------------------------------------------------------
                     Demand      Head  Pressure  Flouride
  Node                  gpm        ft       psi      mg/l
  --------------------------------------------------------
  33                   0.00   1000.00    433.30    0.0863
  34                   1.89   1000.00    433.30    0.0546
  src                 -1.89   1000.00      0.00    0.0000  Reservoir
   
   
  Link Results at 55:00:00 hrs:
  ----------------------------------------------
                       Flow  Velocity  Headloss
  Link                  gpm       fps   /1000ft
  ----------------------------------------------
  L1                 1.8900      0.01      0.00
  P1                 1.8900      0.01      0.00
   