  Page 1                                    Wed Aug 07 13:30:17 2019

  ******************************************************************
  *                           E P A N E T                          *
  *                   Hydraulic and Water Quality                  *
  *                   Analysis for Pipe Networks                   *
  *                         Version 2.2                            *
  ******************************************************************
  
  Analysis begun Wed Aug 07 13:30:17 2019

   
  Node Results at 0:00:00 hrs:
  --------------------------------------------------------
                     Demand      Head  Pressure  Flouride
  Node                  gpm        ft       psi      mg/l
  --------------------------------------------------------
  8                    0.00   1000.00    433.30    1.0000
  10                   6.30   1000.00    433.30    1.0000
  src                 -6.30   1000.00      0.00    0.0000  Reservoir
   
   
  Link Results at 0:00:00 hrs:
  ----------------------------------------------
                       Flow  Velocity  Headloss
  Link                  gpm       fps   /1000ft
  ----------------------------------------------
  L1                 6.3000      0.04      0.00
  P1                 6.3000      0.04      0.00
   
   
  Node Results at 1:00:00 hrs:
  --------------------------------------------------------
                     Demand      Head  Pressure  Flouride
  Node                  gpm        ft       psi      mg/l
  --------------------------------------------------------
  8                    0.00   1000.00    433.30    1.0000
  10                   5.20   1000.00    433.30    1.0000
  src                 -5.20   1000.00      0.00    0.0000  Reservoir
   
   
  Link Results at 1:00:00 hrs:
  ----------------------------------------------
                       Flow  Velocity  Headloss
  Link                  gpm       fps   /1000ft
  ----------------------------------------------
  L1                 5.2000      0.03      0.00
  P1                 5.2000      0.03      0.00
   
   
  Node Results at 2:00:00 hrs:
  --------------------------------------------------------
                     Demand      Head  Pressure  Flouride
  Node                  gpm        ft       psi      mg/l
  --------------------------------------------------------
  8                    0.00   1000.00    433.30    1.0000
  10                   4.85   1000.00    433.30    1.0000
  src                 -4.85   1000.00      0.00    0.0000  Reservoir
   
   
  Link Results at 2:00:00 hrs:
  ----------------------------------------------
                       Flow  Velocity  Headloss
  Link                  gpm       fps   /1000ft
  ----------------------------------------------
  L1                 4.8500      0.03      0.00
  P1                 4.8500      0.03      0.00
   
   
  Node Results at 3:00:00 hrs:
  --------------------------------------------------------
                     Demand      Head  Pressure  Flouride
  Node                  gpm        ft       psi      mg/l
  --------------------------------------------------------
  8                    0.00   1000.00    433.30    1.0000
  10                   4.85   1000.00    433.30    1.0000
  src                 -4.85   1000.00      0.00    0.0000  Reservoir
   
   
  Link Results at 3:00:00 hrs:
  ----------------------------------------------
                       Flow  Velocity  Headloss
  Link                  gpm       fps   /1000ft
  ----------------------------------------------
  L1                 4.8501      0.03      0.00
  P1                 4.8500      0.03      0.00
   
   
  Node Results at 4:00:00 hrs:
  --------------------------------------------------------
                     Demand      Head  Pressure  Flouride
  Node                  gpm        ft       psi      mg/l
  --------------------------------------------------------
  8                    0.00   1000.00    433.30    1.0000
  10                   4.45   1000.00    433.30    1.0000
  src                 -4.45   1000.00      0.00    0.0000  Reservoir
   
   
  Link Results at 4:00:00 hrs:
  ----------------------------------------------
                       Flow  Velocity  Headloss
  Link                  gpm       fps   /1000ft
  ----------------------------------------------
  L1                 4.4500      0.03      0.00
  P1                 4.4500      0.03      0.00
   
   
  Node Results at 5:00:00 hrs:
  --------------------------------------------------------
                     Demand      Head  Pressure  Flouride
  Node                  gpm        ft       psi      mg/l
  --------------------------------------------------------
  8                    0.00   1000.00    433.30    1.0000
  10                   5.95   1000.00    433.30    1.0000
  src                 -5.95   1000.00      0.00    0.0000  Reservoir
   
   
  Link Results at 5:00:00 hrs:
  ----------------------------------------------
                       Flow  Velocity  Headloss
  Link                  gpm       fps   /1000ft
  ----------------------------------------------
  L1                 5.9500      0.04      0.00
  P1                 5.9500      0.04      0.00
   
   
  Node Results at 6:00:00 hrs:
  --------------------------------------------------------
                     Demand      Head  Pressure  Flouride
  Node                  gpm        ft       psi      mg/l
  --------------------------------------------------------
  8                    0.00   1000.00    433.30    1.0000
  10                   6.40   1000.00    433.30    1.0000
  src                 -6.40   1000.00      0.00    0.0000  Reservoir
   
   
  Link Results at 6:00:00 hrs:
  ----------------------------------------------
                       Flow  Velocity  Headloss
  Link                  gpm       fps   /1000ft
  ----------------------------------------------
  L1                 6.3999      0.04      0.00
  P1                 6.4000      0.04      0.00
   
   
  Node Results at 7:00:00 hrs:
  --------------------------------------------------------
                     Demand      Head  Pressure  Flouride
  Node                  gpm        ft       psi      mg/l
  --------------------------------------------------------
  8                    0.00   1000.00    433.30    1.0000
  10                   3.35   1000.00    433.30    1.0000
  src                 -3.35   1000.00      0.00    0.0000  Reservoir
   
   
  Link Results at 7:00:00 hrs:
  ----------------------------------------------
                       Flow  Velocity  Headloss
  Link                  gpm       fps   /1000ft
  ----------------------------------------------
  L1                 3.3501      0.02      0.00
  P1                 3.3500      0.02      0.00
   
   
  Node Results at 8:00:00 hrs:
  --------------------------------------------------------
                     Demand      Head  Pressure  Flouride
  Node                  gpm        ft       psi      mg/l
  --------------------------------------------------------
  8                    0.00   1000.00    433.30    1.0000
  10                   3.35   1000.00    433.30    1.0000
  src                 -3.35   1000.00      0.00    0.0000  Reservoir
   
   
  Link Results at 8:00:00 hrs:
  ----------------------------------------------
                       Flow  Velocity  Headloss
  Link                  gpm       fps   /1000ft
  ----------------------------------------------
  L1                 3.3500      0.02      0.00
  P1                 3.3500      0.02      0.00
   
   
  Node Results at 9:00:00 hrs:
  --------------------------------------------------------
                     Demand      Head  Pressure  Flouride
  Node                  gpm        ft       psi      mg/l
  --------------------------------------------------------
  8                    0.00   1000.00    433.30    1.0000
  10                   6.70   1000.00    433.30    1.0000
  src                 -6.70   1000.00      0.00    0.0000  Reservoir
   
   
  Link Results at 9:00:00 hrs:
  ----------------------------------------------
                       Flow  Velocity  Headloss
  Link                  gpm       fps   /1000ft
  ----------------------------------------------
  L1                 6.6999      0.04      0.00
  P1                 6.7000      0.04      0.00
   
   
  Node Results at 10:00:00 hrs:
  --------------------------------------------------------
                     Demand      Head  Pressure  Flouride
  Node                  gpm        ft       psi      mg/l
  --------------------------------------------------------
  8                    0.00   1000.00    433.30    1.0000
  10                  12.30   1000.00    433.30    1.0000
  src                -12.30   1000.00      0.00    0.0000  Reservoir
   
   
  Link Results at 10:00:00 hrs:
  ----------------------------------------------
                       Flow  Velocity  Headloss
  Link                  gpm       fps   /1000ft
  ----------------------------------------------
  L1                12.3000      0.08      0.00
  P1                12.3000      0.08      0.00
   
   
  Node Results at 11:00:00 hrs:
  --------------------------------------------------------
                     Demand      Head  Pressure  Flouride
  Node                  gpm        ft       psi      mg/l
  --------------------------------------------------------
  8                    0.00   1000.00    433.30    0.9840
  10                   4.85   1000.00    433.30    1.0000
  src                 -4.85   1000.00      0.00    0.0000  Reservoir
   
   
  Link Results at 11:00:00 hrs:
  ----------------------------------------------
                       Flow  Velocity  Headloss
  Link                  gpm       fps   /1000ft
  ----------------------------------------------
  L1                 4.8500      0.03      0.00
  P1                 4.8500      0.03      0.00
   
   
  Node Results at 12:00:00 hrs:
  --------------------------------------------------------
                     Demand      Head  Pressure  Flouride
  Node                  gpm        ft       psi      mg/l
  --------------------------------------------------------
  8                    0.00   1000.00    433.30    1.0323
  10                   4.60   1000.00    433.30    1.0000
  src                 -4.60   1000.00      0.00    0.0000  Reservoir
   
   
  Link Results at 12:00:00 hrs:
  ----------------------------------------------
                       Flow  Velocity  Headloss
  Link                  gpm       fps   /1000ft
  ----------------------------------------------
  L1                 4.6000      0.03      0.00
  P1                 4.6000      0.03      0.00
   
   
  Node Results at 13:00:00 hrs:
  --------------------------------------------------------
                     Demand      Head  Pressure  Flouride
  Node                  gpm        ft       psi      mg/l
  --------------------------------------------------------
  8                    0.00   1000.00    433.30    0.7944
  10                   3.40   1000.00    433.30    1.0000
  src                 -3.40   1000.00      0.00    0.0000  Reservoir
   
   
  Link Results at 13:00:00 hrs:
  ----------------------------------------------
                       Flow  Velocity  Headloss
  Link                  gpm       fps   /1000ft
  ----------------------------------------------
  L1                 3.4001      0.02      0.00
  P1                 3.4000      0.02      0.00
   
   
  Node Results at 14:00:00 hrs:
  --------------------------------------------------------
                     Demand      Head  Pressure  Flouride
  Node                  gpm        ft       psi      mg/l
  --------------------------------------------------------
  8                    0.00   1000.00    433.30    0.6942
  10                   7.15   1000.00    433.30    1.0000
  src                 -7.15   1000.00      0.00    0.0000  Reservoir
   
   
  Link Results at 14:00:00 hrs:
  ----------------------------------------------
                       Flow  Velocity  Headloss
  Link                  gpm       fps   /1000ft
  ----------------------------------------------
  L1                 7.1500      0.05      0.00
  P1                 7.1500      0.05      0.00
   
   
  Node Results at 15:00:00 hrs:
  --------------------------------------------------------
                     Demand      Head  Pressure  Flouride
  Node                  gpm        ft       psi      mg/l
  --------------------------------------------------------
  8                    0.00   1000.00    433.30    0.5268
  10                   3.05   1000.00    433.30    1.0000
  src                 -3.05   1000.00      0.00    0.0000  Reservoir
   
   
  Link Results at 15:00:00 hrs:
  ----------------------------------------------
                       Flow  Velocity  Headloss
  Link                  gpm       fps   /1000ft
  ----------------------------------------------
  L1                 3.0500      0.02      0.00
  P1                 3.0500      0.02      0.00
   
   
  Node Results at 16:00:00 hrs:
  --------------------------------------------------------
                     Demand      Head  Pressure  Flouride
  Node                  gpm        ft       psi      mg/l
  --------------------------------------------------------
  8                    0.00   1000.00    433.30    0.5268
  10                   1.55   1000.00    433.30    1.0000
  src                 -1.55   1000.00      0.00    0.0000  Reservoir
   
   
  Link Results at 16:00:00 hrs:
  ----------------------------------------------
                       Flow  Velocity  Headloss
  Link                  gpm       fps   /1000ft
  ----------------------------------------------
  L1                 1.5500      0.01      0.00
  P1                 1.5500      0.01      0.00
   
   
  Node Results at 17:00:00 hrs:
  --------------------------------------------------------
                     Demand      Head  Pressure  Flouride
  Node                  gpm        ft       psi      mg/l
  --------------------------------------------------------
  8                    0.00   1000.00    433.30    0.5268
  10                   3.90   1000.00    433.30    1.0000
  src                 -3.90   1000.00      0.00    0.0000  Reservoir
   
   
  Link Results at 17:00:00 hrs:
  ----------------------------------------------
                       Flow  Velocity  Headloss
  Link                  gpm       fps   /1000ft
  ----------------------------------------------
  L1                 3.9000      0.02      0.00
  P1                 3.9000      0.02      0.00
   
   
  Node Results at 18:00:00 hrs:
  --------------------------------------------------------
                     Demand      Head  Pressure  Flouride
  Node                  gpm        ft       psi      mg/l
  --------------------------------------------------------
  8                    0.00   1000.00    433.30    0.5268
  10                   1.85   1000.00    433.30    1.0000
  src                 -1.85   1000.00      0.00    0.0000  Reservoir
   
   
  Link Results at 18:00:00 hrs:
  ----------------------------------------------
                       Flow  Velocity  Headloss
  Link                  gpm       fps   /1000ft
  ----------------------------------------------
  L1                 1.8499      0.01      0.00
  P1                 1.8500      0.01      0.00
   
   
  Node Results at 19:00:00 hrs:
  --------------------------------------------------------
                     Demand      Head  Pressure  Flouride
  Node                  gpm        ft       psi      mg/l
  --------------------------------------------------------
  8                    0.00   1000.00    433.30    0.5268
  10                   3.35   1000.00    433.30    1.0000
  src                 -3.35   1000.00      0.00    0.0000  Reservoir
   
   
  Link Results at 19:00:00 hrs:
  ----------------------------------------------
                       Flow  Velocity  Headloss
  Link                  gpm       fps   /1000ft
  ----------------------------------------------
  L1                 3.3500      0.02      0.00
  P1                 3.3500      0.02      0.00
   
   
  Node Results at 20:00:00 hrs:
  --------------------------------------------------------
                     Demand      Head  Pressure  Flouride
  Node                  gpm        ft       psi      mg/l
  --------------------------------------------------------
  8                    0.00   1000.00    433.30    0.5911
  10                   6.30   1000.00    433.30    0.9840
  src                 -6.30   1000.00      0.00    0.0000  Reservoir
   
   
  Link Results at 20:00:00 hrs:
  ----------------------------------------------
                       Flow  Velocity  Headloss
  Link                  gpm       fps   /1000ft
  ----------------------------------------------
  L1                 6.3000      0.04      0.00
  P1                 6.3000      0.04      0.00
   
   
  Node Results at 21:00:00 hrs:
  --------------------------------------------------------
                     Demand      Head  Pressure  Flouride
  Node                  gpm        ft       psi      mg/l
  --------------------------------------------------------
  8                    0.00   1000.00    433.30    0.6927
  10                   7.80   1000.00    433.30    0.9840
  src                 -7.80   1000.00      0.00    0.0000  Reservoir
   
   
  Link Results at 21:00:00 hrs:
  ----------------------------------------------
                       Flow  Velocity  Headloss
  Link                  gpm       fps   /1000ft
  ----------------------------------------------
  L1                 7.8000      0.05      0.00
  P1                 7.8000      0.05      0.00
   
   
  Node Results at 22:00:00 hrs:
  --------------------------------------------------------
                     Demand      Head  Pressure  Flouride
  Node                  gpm        ft       psi      mg/l
  --------------------------------------------------------
  8                    0.00   1000.00    433.30    0.9583
  10                   5.95   1000.00    433.30    1.0323
  src                 -5.95   1000.00      0.00    0.0000  Reservoir
   
   
  Link Results at 22:00:00 hrs:
  ----------------------------------------------
                       Flow  Velocity  Headloss
  Link                  gpm       fps   /1000ft
  ----------------------------------------------
  L1                 5.9500      0.04      0.00
  P1                 5.9500      0.04      0.00
   
   
  Node Results at 23:00:00 hrs:
  --------------------------------------------------------
                     Demand      Head  Pressure  Flouride
  Node                  gpm        ft       psi      mg/l
  --------------------------------------------------------
  8                    0.00   1000.00    433.30    0.8322
  10                   6.30   1000.00    433.30    0.6942
  src                 -6.30   1000.00      0.00    0.0000  Reservoir
   
   
  Link Results at 23:00:00 hrs:
  ----------------------------------------------
                       Flow  Velocity  Headloss
  Link                  gpm       fps   /1000ft
  ----------------------------------------------
  L1                 6.3000      0.04      0.00
  P1                 6.3000      0.04      0.00
   
   
  Node Results at 24:00:00 hrs:
  --------------------------------------------------------
                     Demand      Head  Pressure  Flouride
  Node                  gpm        ft       psi      mg/l
  --------------------------------------------------------
  8                    0.00   1000.00    433.30    0.2082
  10                   3.00   1000.00    433.30    0.5268
  src                 -3.00   1000.00      0.00    0.0000  Reservoir
   
   
  Link Results at 24:00:00 hrs:
  ----------------------------------------------
                       Flow  Velocity  Headloss
  Link                  gpm       fps   /1000ft
  ----------------------------------------------
  L1                 3.0000      0.02      0.00
  P1                 3.0000      0.02      0.00
   
   
  Node Results at 25:00:00 hrs:
  --------------------------------------------------------
                     Demand      Head  Pressure  Flouride
  Node                  gpm        ft       psi      mg/l
  --------------------------------------------------------
  8                    0.00   1000.00    433.30    0.1946
  10                   5.50   1000.00    433.30    0.5268
  src                 -5.50   1000.00      0.00    0.0000  Reservoir
   
   
  Link Results at 25:00:00 hrs:
  ----------------------------------------------
                       Flow  Velocity  Headloss
  Link                  gpm       fps   /1000ft
  ----------------------------------------------
  L1                 5.5000      0.04      0.00
  P1                 5.5000      0.04      0.00
   
   
  Node Results at 26:00:00 hrs:
  --------------------------------------------------------
                     Demand      Head  Pressure  Flouride
  Node                  gpm        ft       psi      mg/l
  --------------------------------------------------------
  8                    0.00   1000.00    433.30    0.1338
  10                   5.15   1000.00    433.30    0.5268
  src                 -5.15   1000.00      0.00    0.0000  Reservoir
   
   
  Link Results at 26:00:00 hrs:
  ----------------------------------------------
                       Flow  Velocity  Headloss
  Link                  gpm       fps   /1000ft
  ----------------------------------------------
  L1                 5.1500      0.03      0.00
  P1                 5.1500      0.03      0.00
   
   
  Node Results at 27:00:00 hrs:
  --------------------------------------------------------
                     Demand      Head  Pressure  Flouride
  Node                  gpm        ft       psi      mg/l
  --------------------------------------------------------
  8                    0.00   1000.00    433.30    0.1338
  10                   3.65   1000.00    433.30    0.5268
  src                 -3.65   1000.00      0.00    0.0000  Reservoir
   
   
  Link Results at 27:00:00 hrs:
  ----------------------------------------------
                       Flow  Velocity  Headloss
  Link                  gpm       fps   /1000ft
  ----------------------------------------------
  L1                 3.6500      0.02      0.00
  P1                 3.6500      0.02      0.00
   
   
  Node Results at 28:00:00 hrs:
  --------------------------------------------------------
                     Demand      Head  Pressure  Flouride
  Node                  gpm        ft       psi      mg/l
  --------------------------------------------------------
  8                    0.00   1000.00    433.30    0.1338
  10                   4.40   1000.00    433.30    0.6927
  src                 -4.40   1000.00      0.00    0.0000  Reservoir
   
   
  Link Results at 28:00:00 hrs:
  ----------------------------------------------
                       Flow  Velocity  Headloss
  Link                  gpm       fps   /1000ft
  ----------------------------------------------
  L1                 4.4000      0.03      0.00
  P1                 4.4000      0.03      0.00
   
   
  Node Results at 29:00:00 hrs:
  --------------------------------------------------------
                     Demand      Head  Pressure  Flouride
  Node                  gpm        ft       psi      mg/l
  --------------------------------------------------------
  8                    0.00   1000.00    433.30    0.1338
  10                   5.30   1000.00    433.30    0.6927
  src                 -5.30   1000.00      0.00    0.0000  Reservoir
   
   
  Link Results at 29:00:00 hrs:
  ----------------------------------------------
                       Flow  Velocity  Headloss
  Link                  gpm       fps   /1000ft
  ----------------------------------------------
  L1                 5.3001      0.03      0.00
  P1                 5.3000      0.03      0.00
   
   
  Node Results at 30:00:00 hrs:
  --------------------------------------------------------
                     Demand      Head  Pressure  Flouride
  Node                  gpm        ft       psi      mg/l
  --------------------------------------------------------
  8                    0.00   1000.00    433.30    0.1338
  10                   4.95   1000.00    433.30    0.9583
  src                 -4.95   1000.00      0.00    0.0000  Reservoir
   
   
  Link Results at 30:00:00 hrs:
  ----------------------------------------------
                       Flow  Velocity  Headloss
  Link                  gpm       fps   /1000ft
  ----------------------------------------------
  L1                 4.9500      0.03      0.00
  P1                 4.9500      0.03      0.00
   
   
  Node Results at 31:00:00 hrs:
  --------------------------------------------------------
                     Demand      Head  Pressure  Flouride
  Node                  gpm        ft       psi      mg/l
  --------------------------------------------------------
  8                    0.00   1000.00    433.30    0.1338
  10                   8.60   1000.00    433.30    0.8322
  src                 -8.60   1000.00      0.00    0.0000  Reservoir
   
   
  Link Results at 31:00:00 hrs:
  ----------------------------------------------
                       Flow  Velocity  Headloss
  Link                  gpm       fps   /1000ft
  ----------------------------------------------
  L1                 8.6000      0.05      0.00
  P1                 8.6000      0.05      0.00
   
   
  Node Results at 32:00:00 hrs:
  --------------------------------------------------------
                     Demand      Head  Pressure  Flouride
  Node                  gpm        ft       psi      mg/l
  --------------------------------------------------------
  8                    0.00   1000.00    433.30    0.8072
  10                   5.60   1000.00    433.30    0.2082
  src                 -5.60   1000.00      0.00    0.0000  Reservoir
   
   
  Link Results at 32:00:00 hrs:
  ----------------------------------------------
                       Flow  Velocity  Headloss
  Link                  gpm       fps   /1000ft
  ----------------------------------------------
  L1                 5.6000      0.04      0.00
  P1                 5.6000      0.04      0.00
   
   
  Node Results at 33:00:00 hrs:
  --------------------------------------------------------
                     Demand      Head  Pressure  Flouride
  Node                  gpm        ft       psi      mg/l
  --------------------------------------------------------
  8                    0.00   1000.00    433.30    0.9290
  10                   6.70   1000.00    433.30    0.1946
  src                 -6.70   1000.00      0.00    0.0000  Reservoir
   
   
  Link Results at 33:00:00 hrs:
  ----------------------------------------------
                       Flow  Velocity  Headloss
  Link                  gpm       fps   /1000ft
  ----------------------------------------------
  L1                 6.7000      0.04      0.00
  P1                 6.7000      0.04      0.00
   
   
  Node Results at 34:00:00 hrs:
  --------------------------------------------------------
                     Demand      Head  Pressure  Flouride
  Node                  gpm        ft       psi      mg/l
  --------------------------------------------------------
  8                    0.00   1000.00    433.30    0.1320
  10                   5.60   1000.00    433.30    0.1338
  src                 -5.60   1000.00      0.00    0.0000  Reservoir
   
   
  Link Results at 34:00:00 hrs:
  ----------------------------------------------
                       Flow  Velocity  Headloss
  Link                  gpm       fps   /1000ft
  ----------------------------------------------
  L1                 5.6001      0.04      0.00
  P1                 5.6000      0.04      0.00
   
   
  Node Results at 35:00:00 hrs:
  --------------------------------------------------------
                     Demand      Head  Pressure  Flouride
  Node                  gpm        ft       psi      mg/l
  --------------------------------------------------------
  8                    0.00   1000.00    433.30    0.1235
  10                   4.85   1000.00    433.30    0.1338
  src                 -4.85   1000.00      0.00    0.0000  Reservoir
   
   
  Link Results at 35:00:00 hrs:
  ----------------------------------------------
                       Flow  Velocity  Headloss
  Link                  gpm       fps   /1000ft
  ----------------------------------------------
  L1                 4.8500      0.03      0.00
  P1                 4.8500      0.03      0.00
   
   
  Node Results at 36:00:00 hrs:
  --------------------------------------------------------
                     Demand      Head  Pressure  Flouride
  Node                  gpm        ft       psi      mg/l
  --------------------------------------------------------
  8                    0.00   1000.00    433.30    0.1066
  10                   5.20   1000.00    433.30    0.1338
  src                 -5.20   1000.00      0.00    0.0000  Reservoir
   
   
  Link Results at 36:00:00 hrs:
  ----------------------------------------------
                       Flow  Velocity  Headloss
  Link                  gpm       fps   /1000ft
  ----------------------------------------------
  L1                 5.2000      0.03      0.00
  P1                 5.2000      0.03      0.00
   
   
  Node Results at 37:00:00 hrs:
  --------------------------------------------------------
                     Demand      Head  Pressure  Flouride
  Node                  gpm        ft       psi      mg/l
  --------------------------------------------------------
  8                    0.00   1000.00    433.30    0.0878
  10                   5.75   1000.00    433.30    0.1338
  src                 -5.75   1000.00      0.00    0.0000  Reservoir
   
   
  Link Results at 37:00:00 hrs:
  ----------------------------------------------
                       Flow  Velocity  Headloss
  Link                  gpm       fps   /1000ft
  ----------------------------------------------
  L1                 5.7501      0.04      0.00
  P1                 5.7500      0.04      0.00
   
   
  Node Results at 38:00:00 hrs:
  --------------------------------------------------------
                     Demand      Head  Pressure  Flouride
  Node                  gpm        ft       psi      mg/l
  --------------------------------------------------------
  8                    0.00   1000.00    433.30    0.1061
  10                   4.55   1000.00    433.30    0.1338
  src                 -4.55   1000.00      0.00    0.0000  Reservoir
   
   
  Link Results at 38:00:00 hrs:
  ----------------------------------------------
                       Flow  Velocity  Headloss
  Link                  gpm       fps   /1000ft
  ----------------------------------------------
  L1                 4.5500      0.03      0.00
  P1                 4.5500      0.03      0.00
   
   
  Node Results at 39:00:00 hrs:
  --------------------------------------------------------
                     Demand      Head  Pressure  Flouride
  Node                  gpm        ft       psi      mg/l
  --------------------------------------------------------
  8                    0.00   1000.00    433.30    0.0902
  10                   3.05   1000.00    433.30    0.8072
  src                 -3.05   1000.00      0.00    0.0000  Reservoir
   
   
  Link Results at 39:00:00 hrs:
  ----------------------------------------------
                       Flow  Velocity  Headloss
  Link                  gpm       fps   /1000ft
  ----------------------------------------------
  L1                 3.0500      0.02      0.00
  P1                 3.0500      0.02      0.00
   
   
  Node Results at 40:00:00 hrs:
  --------------------------------------------------------
                     Demand      Head  Pressure  Flouride
  Node                  gpm        ft       psi      mg/l
  --------------------------------------------------------
  8                    0.00   1000.00    433.30    0.0902
  10                   3.40   1000.00    433.30    0.8072
  src                 -3.40   1000.00      0.00    0.0000  Reservoir
   
   
  Link Results at 40:00:00 hrs:
  ----------------------------------------------
                       Flow  Velocity  Headloss
  Link                  gpm       fps   /1000ft
  ----------------------------------------------
  L1                 3.4000      0.02      0.00
  P1                 3.4000      0.02      0.00
   
   
  Node Results at 41:00:00 hrs:
  --------------------------------------------------------
                     Demand      Head  Pressure  Flouride
  Node                  gpm        ft       psi      mg/l
  --------------------------------------------------------
  8                    0.00   1000.00    433.30    0.0902
  10                   2.30   1000.00    433.30    0.9290
  src                 -2.30   1000.00      0.00    0.0000  Reservoir
   
   
  Link Results at 41:00:00 hrs:
  ----------------------------------------------
                       Flow  Velocity  Headloss
  Link                  gpm       fps   /1000ft
  ----------------------------------------------
  L1                 2.2999      0.01      0.00
  P1                 2.3000      0.01      0.00
   
   
  Node Results at 42:00:00 hrs:
  --------------------------------------------------------
                     Demand      Head  Pressure  Flouride
  Node                  gpm        ft       psi      mg/l
  --------------------------------------------------------
  8                    0.00   1000.00    433.30    0.0902
  10                   2.55   1000.00    433.30    0.9290
  src                 -2.55   1000.00      0.00    0.0000  Reservoir
   
   
  Link Results at 42:00:00 hrs:
  ----------------------------------------------
                       Flow  Velocity  Headloss
  Link                  gpm       fps   /1000ft
  ----------------------------------------------
  L1                 2.5501      0.02      0.00
  P1                 2.5500      0.02      0.00
   
   
  Node Results at 43:00:00 hrs:
  --------------------------------------------------------
                     Demand      Head  Pressure  Flouride
  Node                  gpm        ft       psi      mg/l
  --------------------------------------------------------
  8                    0.00   1000.00    433.30    0.0902
  10                   3.70   1000.00    433.30    0.1281
  src                 -3.70   1000.00      0.00    0.0000  Reservoir
   
   
  Link Results at 43:00:00 hrs:
  ----------------------------------------------
                       Flow  Velocity  Headloss
  Link                  gpm       fps   /1000ft
  ----------------------------------------------
  L1                 3.7000      0.02      0.00
  P1                 3.7000      0.02      0.00
   
   
  Node Results at 44:00:00 hrs:
  --------------------------------------------------------
                     Demand      Head  Pressure  Flouride
  Node                  gpm        ft       psi      mg/l
  --------------------------------------------------------
  8                    0.00   1000.00    433.30    0.0902
  10                   5.60   1000.00    433.30    0.1281
  src                 -5.60   1000.00      0.00    0.0000  Reservoir
   
   
  Link Results at 44:00:00 hrs:
  ----------------------------------------------
                       Flow  Velocity  Headloss
  Link                  gpm       fps   /1000ft
  ----------------------------------------------
  L1                 5.6000      0.04      0.00
  P1                 5.6000      0.04      0.00
   
   
  Node Results at 45:00:00 hrs:
  --------------------------------------------------------
                     Demand      Head  Pressure  Flouride
  Node                  gpm        ft       psi      mg/l
  --------------------------------------------------------
  8                    0.00   1000.00    433.30    0.0902
  10                   6.70   1000.00    433.30    0.1281
  src                 -6.70   1000.00      0.00    0.0000  Reservoir
   
   
  Link Results at 45:00:00 hrs:
  ----------------------------------------------
                       Flow  Velocity  Headloss
  Link                  gpm       fps   /1000ft
  ----------------------------------------------
  L1                 6.7000      0.04      0.00
  P1                 6.7000      0.04      0.00
   
   
  Node Results at 46:00:00 hrs:
  --------------------------------------------------------
                     Demand      Head  Pressure  Flouride
  Node                  gpm        ft       psi      mg/l
  --------------------------------------------------------
  8                    0.00   1000.00    433.30    0.0902
  10                   6.30   1000.00    433.30    0.1066
  src                 -6.30   1000.00      0.00    0.0000  Reservoir
   
   
  Link Results at 46:00:00 hrs:
  ----------------------------------------------
                       Flow  Velocity  Headloss
  Link                  gpm       fps   /1000ft
  ----------------------------------------------
  L1                 6.3000      0.04      0.00
  P1                 6.3000      0.04      0.00
   
   
  Node Results at 47:00:00 hrs:
  --------------------------------------------------------
                     Demand      Head  Pressure  Flouride
  Node                  gpm        ft       psi      mg/l
  --------------------------------------------------------
  8                    0.00   1000.00    433.30    0.8443
  10                   4.85   1000.00    433.30    0.1061
  src                 -4.85   1000.00      0.00    0.0000  Reservoir
   
   
  Link Results at 47:00:00 hrs:
  ----------------------------------------------
                       Flow  Velocity  Headloss
  Link                  gpm       fps   /1000ft
  ----------------------------------------------
  L1                 4.8501      0.03      0.00
  P1                 4.8500      0.03      0.00
   
   
  Node Results at 48:00:00 hrs:
  --------------------------------------------------------
                     Demand      Head  Pressure  Flouride
  Node                  gpm        ft       psi      mg/l
  --------------------------------------------------------
  8                    0.00   1000.00    433.30    0.0885
  10                   4.10   1000.00    433.30    0.1061
  src                 -4.10   1000.00      0.00    0.0000  Reservoir
   
   
  Link Results at 48:00:00 hrs:
  ----------------------------------------------
                       Flow  Velocity  Headloss
  Link                  gpm       fps   /1000ft
  ----------------------------------------------
  L1                 4.1000      0.03      0.00
  P1                 4.1000      0.03      0.00
   
   
  Node Results at 49:00:00 hrs:
  --------------------------------------------------------
                     Demand      Head  Pressure  Flouride
  Node                  gpm        ft       psi      mg/l
  --------------------------------------------------------
  8                    0.00   1000.00    433.30    0.0885
  10                   6.85   1000.00    433.30    0.0902
  src                 -6.85   1000.00      0.00    0.0000  Reservoir
   
   
  Link Results at 49:00:00 hrs:
  ----------------------------------------------
                       Flow  Velocity  Headloss
  Link                  gpm       fps   /1000ft
  ----------------------------------------------
  L1                 6.8500      0.04      0.00
  P1                 6.8500      0.04      0.00
   
   
  Node Results at 50:00:00 hrs:
  --------------------------------------------------------
                     Demand      Head  Pressure  Flouride
  Node                  gpm        ft       psi      mg/l
  --------------------------------------------------------
  8                    0.00   1000.00    433.30    0.0735
  10                   5.15   1000.00    433.30    0.0902
  src                 -5.15   1000.00      0.00    0.0000  Reservoir
   
   
  Link Results at 50:00:00 hrs:
  ----------------------------------------------
                       Flow  Velocity  Headloss
  Link                  gpm       fps   /1000ft
  ----------------------------------------------
  L1                 5.1500      0.03      0.00
  P1                 5.1500      0.03      0.00
   
   
  Node Results at 51:00:00 hrs:
  --------------------------------------------------------
                     Demand      Head  Pressure  Flouride
  Node                  gpm        ft       psi      mg/l
  --------------------------------------------------------
  8                    0.00   1000.00    433.30    0.0871
  10                   4.05   1000.00    433.30    0.0902
  src                 -4.05   1000.00      0.00    0.0000  Reservoir
   
   
  Link Results at 51:00:00 hrs:
  ----------------------------------------------
                       Flow  Velocity  Headloss
  Link                  gpm       fps   /1000ft
  ----------------------------------------------
  L1                 4.0500      0.03      0.00
  P1                 4.0500      0.03      0.00
   
   
  Node Results at 52:00:00 hrs:
  --------------------------------------------------------
                     Demand      Head  Pressure  Flouride
  Node                  gpm        ft       psi      mg/l
  --------------------------------------------------------
  8                    0.00   1000.00    433.30    0.0871
  10                   4.40   1000.00    433.30    0.0902
  src                 -4.40   1000.00      0.00    0.0000  Reservoir
   
   
  Link Results at 52:00:00 hrs:
  ----------------------------------------------
                       Flow  Velocity  Headloss
  Link                  gpm       fps   /1000ft
  ----------------------------------------------
  L1                 4.4001      0.03      0.00
  P1                 4.4000      0.03      0.00
   
   
  Node Results at 53:00:00 hrs:
  --------------------------------------------------------
                     Demand      Head  Pressure  Flouride
  Node                  gpm        ft       psi      mg/l
  --------------------------------------------------------
  8                    0.00   1000.00    433.30    0.0871
  10                   4.05   1000.00    433.30    0.0902
  src                 -4.05   1000.00      0.00    0.0000  Reservoir
   
   
  Link Results at 53:00:00 hrs:
  ----------------------------------------------
                       Flow  Velocity  Headloss
  Link                  gpm       fps   /1000ft
  ----------------------------------------------
  L1                 4.0500      0.03      0.00
  P1                 4.0500      0.03      0.00
   
   
  Node Results at 54:00:00 hrs:
  --------------------------------------------------------
                     Demand      Head  Pressure  Flouride
  Node                  gpm        ft       psi      mg/l
  --------------------------------------------------------
  8                    0.00   1000.00    433.30    0.0871
  10                   4.05   1000.00    433.30    0.0902
  src                 -4.05   1000.00      0.00    0.0000  Reservoir
   
   
  Link Results at 54:00:00 hrs:
  ----------------------------------------------
                       Flow  Velocity  Headloss
  Link                  gpm       fps   /1000ft
  ----------------------------------------------
  L1                 4.0500      0.03      0.00
  P1                 4.0500      0.03      0.00
   
   
  Node Results at 55:00:00 hrs:
  --------------------------------------------------------
                     Demand      Head  Pressure  Flouride
  Node                  gpm        ft       psi      mg/l
  --------------------------------------------------------
  8                    0.00   1000.00    433.30    0.0871
  10                   6.30   1000.00    433.30    0.8443
  src                 -6.30   1000.00      0.00    0.0000  Reservoir
   
   
  Link Results at 55:00:00 hrs:
  ----------------------------------------------
                       Flow  Velocity  Headloss
  Link                  gpm       fps   /1000ft
  ----------------------------------------------
  L1                 6.3000      0.04      0.00
  P1                 6.3000      0.04      0.00
   