  Page 1                                    Fri Jul 12 10:52:56 2019

  ******************************************************************
  *                           E P A N E T                          *
  *                   Hydraulic and Water Quality                  *
  *                   Analysis for Pipe Networks                   *
  *                         Version 2.00.12                        *
  ******************************************************************
  
  Analysis begun Fri Jul 12 10:52:56 2019

   
  Node Results at 0:00:00 hrs:
  --------------------------------------------------------
                     Demand      Head  Pressure  Flouride
  Node                  gpm        ft       psi      mg/l
  --------------------------------------------------------
  1                 -666.62    309.88    112.61    1.0000
  2                   10.08    305.22     88.92    1.0000
  3                   17.64    304.59    105.98    1.0000
  4                   10.08    304.17    105.80    1.0000
  5                   10.08    304.13     88.45    1.0000
  6                    6.30    302.10     76.74    1.0000
  7                    5.04    297.62     59.63    1.0000
  8                   11.34    297.61     81.29    1.0000
  9                   17.64    297.00     50.69    1.0000
  10                   6.30    297.61     72.63    1.0000
  11                  43.82    295.97     48.08    1.0000
  12                  20.16    293.57     36.21    1.0000
  13                   2.52    292.86     35.90    1.0000
  14                   2.52    292.54     40.10    1.0000
  15                   2.52    292.35     44.35    1.0000
  16                  25.20    292.38     61.69    1.0000
  17                  25.20    292.33     48.67    1.0000
  18                  25.20    292.33     83.34    1.0000
  19                   6.30    292.34     61.67    1.0000
  20                  23.94    292.51     53.08    1.0000
  21                  20.16    292.49     61.74    1.0000
  22                  12.60    292.49     40.07    1.0000
  23                  10.08    291.91     26.83    1.0000
  24                  13.86    292.22     44.29    1.0000
  25                   7.56    291.77     26.76    1.0000
  27                  10.08    291.75     70.09    1.0000
  28                   0.00    291.74     78.75    1.0000
  29                   8.82    291.74     78.75    1.0000
  30                   3.78    291.74     70.08    1.0000
  31                  21.42    291.76     44.09    1.0000
  32                  21.42    292.33     79.00    1.0000
  33                   1.89    292.49     48.74    1.0000
  34                   1.89    292.49     44.41    1.0000
  35                   0.00    291.74     78.75    1.0000
  36                   1.26    291.74     78.75    1.0000
  26                 259.92    291.70     24.57    1.0000  Tank
   
   
  Link Results at 0:00:00 hrs:
  ----------------------------------------------
                       Flow  Velocity  Headloss
  Link                  gpm       fps   /1000ft
  ----------------------------------------------
  1                666.6240      1.89      1.94
  2                548.3642      1.56      1.35
  3                108.1798      0.69      0.48
  4                 90.5398      0.58      0.35
  5                 80.4598      0.23      0.04
  6                618.7440      1.76      1.69
  7                612.4440      1.74      1.66
  8                 17.6400      0.05      0.00
  9                589.7640      1.67      1.55
  10                 6.3000      0.04      0.00
  11               572.1240      1.62      1.46
  12               528.3012      1.50      1.26
  13               508.1412      1.44      1.18
  14               418.2690      1.19      0.82
  15               355.2689      1.01      0.61
  16                87.3523      0.56      0.33
  17                15.9677      0.10      0.01
  18                38.7569      0.25      0.07
  19                29.5246      0.08      0.01
  20                 4.3246      0.01      0.00
  21                23.3954      0.15      0.03
  22                60.4800      0.17      0.02
  23                18.3389      0.12      0.02
  24                -1.8211      0.01      0.00
  25                18.2011      0.12      0.02
  26               322.9212      0.92      0.51
  27               336.7812      0.96      0.55
  28               312.8412      0.89      0.48
  29               259.9212      0.74      0.34
  30                45.3600      0.13      0.01
  31                23.9400      0.15      0.03
  32                13.8600      0.09      0.01
  34                 2.5734      0.02      0.00
  35                 3.7800      0.02      0.00
  36                 1.8900      0.01      0.00
  37               -17.0954      0.11      0.02
  38                 2.4666      0.02      0.00
  39                 3.7800      0.02      0.00
  40                 1.3134      0.01      0.00
  41                 1.2600      0.01      0.00
   
   
  Node Results at 1:00:00 hrs:
  --------------------------------------------------------
                     Demand      Head  Pressure  Flouride
  Node                  gpm        ft       psi      mg/l
  --------------------------------------------------------
  1                 -666.62    311.83    113.45    0.9800
  2                    8.32    307.16     89.76    0.9800
  3                   14.56    306.54    106.83    0.9806
  4                    8.32    306.11    106.64    1.0000
  5                    8.32    306.07     89.29    0.9826
  6                    5.20    303.98     77.55    0.9829
  7                    4.16    299.37     60.39    0.9994
  8                    9.36    299.37     82.05    1.0000
  9                   14.56    298.72     51.44    0.9994
  10                   5.20    299.36     73.39    1.0000
  11                  36.17    297.64     48.81    0.9994
  12                  16.64    295.03     36.84    0.9998
  13                   2.08    294.25     36.51    1.0000
  14                   2.08    293.89     40.68    1.0000
  15                   2.08    293.67     44.92    1.0000
  16                  20.80    293.73     62.28    1.0000
  17                  20.80    293.67     49.25    1.0000
  18                  20.80    293.67     83.92    1.0000
  19                   5.20    293.68     62.26    1.0000
  20                  19.76    293.87     53.67    1.0000
  21                  16.64    293.85     62.33    1.0000
  22                  10.40    293.85     40.67    1.0000
  23                   8.32    293.07     27.33    1.0000
  24                  11.44    293.49     44.84    1.0000
  25                   6.24    292.87     27.24    1.0000
  27                   8.32    292.85     70.56    1.0000
  28                   0.00    292.85     79.23    1.0000
  29                   7.28    292.85     79.23    1.0000
  30                   3.12    292.85     70.56    1.0000
  31                  17.68    292.86     44.57    1.0000
  32                  17.68    293.67     79.58    1.0000
  33                   1.56    293.85     49.33    1.0000
  34                   1.56    293.85     45.00    1.0000
  35                   0.00    292.85     79.23    1.0000
  36                   1.04    292.85     79.23    1.0000
  26                 330.93    292.76     25.03    1.0000  Tank
   
   
  Link Results at 1:00:00 hrs:
  ----------------------------------------------
                       Flow  Velocity  Headloss
  Link                  gpm       fps   /1000ft
  ----------------------------------------------
  1                666.6240      1.89      1.94
  2                551.1481      1.56      1.37
  3                107.1559      0.68      0.47
  4                 92.5959      0.59      0.36
  5                 84.2759      0.24      0.04
  6                627.1040      1.78      1.74
  7                621.9040      1.76      1.71
  8                 14.5600      0.04      0.00
  9                603.1840      1.71      1.62
  10                 5.2000      0.03      0.00
  11               588.6240      1.67      1.54
  12               552.4528      1.57      1.37
  13               535.8128      1.52      1.30
  14               442.9776      1.26      0.91
  15               390.9776      1.11      0.72
  16                90.7552      0.58      0.35
  17                -5.4752      0.03      0.00
  18                44.4408      0.28      0.09
  19                18.1656      0.05      0.00
  20                -2.6344      0.01      0.00
  21                25.5144      0.16      0.03
  22                49.9200      0.14      0.02
  23                15.1369      0.10      0.01
  24                -1.5031      0.01      0.00
  25                15.0231      0.10      0.01
  26               382.9328      1.09      0.70
  27               394.3728      1.12      0.74
  28               374.6128      1.06      0.67
  29               330.9328      0.94      0.53
  30                37.4400      0.11      0.01
  31                19.7600      0.13      0.02
  32                11.4400      0.07      0.01
  34                 1.7906      0.01      0.00
  35                 3.1200      0.02      0.00
  36                 1.5600      0.01      0.00
  37               -20.3144      0.13      0.02
  38                 2.3694      0.02      0.00
  39                 3.1200      0.02      0.00
  40                 0.7506      0.00      0.00
  41                 1.0400      0.01      0.00
   
   
  Node Results at 2:00:00 hrs:
  --------------------------------------------------------
                     Demand      Head  Pressure  Flouride
  Node                  gpm        ft       psi      mg/l
  --------------------------------------------------------
  1                 -666.62    313.47    114.16    1.0200
  2                    7.76    308.80     90.47    1.0200
  3                   13.58    308.19    107.54    1.0187
  4                    7.76    307.75    107.35    0.9807
  5                    7.76    307.71     90.00    1.0173
  6                    4.85    305.61     78.26    1.0167
  7                    3.88    300.95     61.07    0.9842
  8                    8.73    300.95     82.74    1.0000
  9                   13.58    300.29     52.12    0.9842
  10                   4.85    300.95     74.07    1.0000
  11                  33.74    299.20     49.48    0.9841
  12                  15.52    296.52     37.49    0.9837
  13                   1.94    295.72     37.14    0.9836
  14                   1.94    295.34     41.31    0.9841
  15                   1.94    295.11     45.54    0.9892
  16                  19.40    295.18     62.91    0.9990
  17                  19.40    295.12     49.88    0.9996
  18                  19.40    295.12     84.55    1.0000
  19                   4.85    295.14     62.89    0.9999
  20                  18.43    295.33     54.30    0.9996
  21                  15.52    295.31     62.96    1.0000
  22                   9.70    295.31     41.30    1.0000
  23                   7.76    294.45     27.93    0.9979
  24                  10.67    294.91     45.46    0.9976
  25                   5.82    294.23     27.83    0.9983
  27                   7.76    294.22     71.16    1.0000
  28                   0.00    294.22     79.82    1.0000
  29                   6.79    294.22     79.82    1.0000
  30                   2.91    294.22     71.16    1.0000
  31                  16.49    294.23     45.16    0.9999
  32                  16.49    295.12     80.21    1.0000
  33                   1.45    295.31     49.96    1.0000
  34                   1.45    295.31     45.63    1.0000
  35                   0.00    294.22     79.82    1.0000
  36                   0.97    294.22     79.82    1.0000
  26                 353.53    294.11     25.61    1.0000  Tank
   
   
  Link Results at 2:00:00 hrs:
  ----------------------------------------------
                       Flow  Velocity  Headloss
  Link                  gpm       fps   /1000ft
  ----------------------------------------------
  1                666.6240      1.89      1.94
  2                552.0385      1.57      1.37
  3                106.8256      0.68      0.47
  4                 93.2456      0.60      0.37
  5                 85.4856      0.24      0.04
  6                629.7640      1.79      1.75
  7                624.9140      1.77      1.72
  8                 13.5800      0.04      0.00
  9                607.4540      1.72      1.64
  10                 4.8500      0.03      0.00
  11               593.8740      1.68      1.57
  12               560.1374      1.59      1.41
  13               544.6174      1.54      1.34
  14               450.9524      1.28      0.94
  15               402.4524      1.14      0.76
  16                91.7250      0.59      0.36
  17               -12.1850      0.08      0.01
  18                46.1323      0.29      0.10
  19                14.5472      0.04      0.00
  20                -4.8528      0.01      0.00
  21                26.1928      0.17      0.03
  22                46.5600      0.13      0.01
  23                14.1181      0.09      0.01
  24                -1.4019      0.01      0.00
  25                14.0119      0.09      0.01
  26               402.0274      1.14      0.76
  27               412.6974      1.17      0.80
  28               394.2674      1.12      0.74
  29               353.5274      1.00      0.60
  30                34.9200      0.10      0.01
  31                18.4300      0.12      0.02
  32                10.6700      0.07      0.01
  34                 1.6701      0.01      0.00
  35                 2.9100      0.02      0.00
  36                 1.4550      0.01      0.00
  37               -21.3428      0.14      0.02
  38                 2.2099      0.01      0.00
  39                 2.9100      0.02      0.00
  40                 0.7001      0.00      0.00
  41                 0.9700      0.01      0.00
   
   
  Node Results at 3:00:00 hrs:
  --------------------------------------------------------
                     Demand      Head  Pressure  Flouride
  Node                  gpm        ft       psi      mg/l
  --------------------------------------------------------
  1                 -666.62    314.91    114.79    1.0500
  2                    7.76    310.25     91.10    1.0500
  3                   13.58    309.63    108.17    1.0490
  4                    7.76    309.19    107.98    1.0193
  5                    7.76    309.15     90.63    1.0408
  6                    4.85    307.05     78.88    1.0405
  7                    3.88    302.39     61.70    1.0176
  8                    8.73    302.39     83.36    1.0000
  9                   13.58    301.74     52.75    1.0176
  10                   4.85    302.39     74.70    1.0000
  11                  33.74    300.64     50.11    1.0176
  12                  15.52    297.96     38.11    1.0163
  13                   1.94    297.16     37.77    1.0158
  14                   1.94    296.78     41.94    1.0153
  15                   1.94    296.56     46.17    1.0103
  16                  19.40    296.63     63.53    0.9843
  17                  19.40    296.57     50.51    0.9983
  18                  19.40    296.57     85.17    0.9998
  19                   4.85    296.58     63.51    0.9995
  20                  18.43    296.77     54.93    0.9996
  21                  15.52    296.75     63.59    0.9999
  22                   9.70    296.76     41.92    0.9999
  23                   7.76    295.90     28.55    0.9846
  24                  10.67    296.36     46.08    0.9959
  25                   5.82    295.68     28.46    0.9845
  27                   7.76    295.67     71.78    0.9996
  28                   0.00    295.66     80.45    1.0000
  29                   6.79    295.66     80.45    0.9999
  30                   2.91    295.66     71.78    1.0000
  31                  16.49    295.67     45.79    0.9993
  32                  16.49    296.57     80.84    0.9997
  33                   1.45    296.75     50.59    1.0000
  34                   1.45    296.75     46.26    1.0000
  35                   0.00    295.66     80.45    1.0000
  36                   0.97    295.66     80.45    1.0000
  26                 353.53    295.56     26.24    0.9997  Tank
   
   
  Link Results at 3:00:00 hrs:
  ----------------------------------------------
                       Flow  Velocity  Headloss
  Link                  gpm       fps   /1000ft
  ----------------------------------------------
  1                666.6240      1.89      1.94
  2                552.0385      1.57      1.37
  3                106.8256      0.68      0.47
  4                 93.2456      0.60      0.37
  5                 85.4856      0.24      0.04
  6                629.7640      1.79      1.75
  7                624.9140      1.77      1.72
  8                 13.5800      0.04      0.00
  9                607.4540      1.72      1.64
  10                 4.8500      0.03      0.00
  11               593.8740      1.68      1.57
  12               560.1374      1.59      1.41
  13               544.6174      1.54      1.34
  14               450.9526      1.28      0.94
  15               402.4526      1.14      0.76
  16                91.7248      0.59      0.36
  17               -12.1847      0.08      0.01
  18                46.1320      0.29      0.10
  19                14.5473      0.04      0.00
  20                -4.8527      0.01      0.00
  21                26.1927      0.17      0.03
  22                46.5600      0.13      0.01
  23                14.1181      0.09      0.01
  24                -1.4019      0.01      0.00
  25                14.0119      0.09      0.01
  26               402.0274      1.14      0.76
  27               412.6974      1.17      0.80
  28               394.2674      1.12      0.74
  29               353.5274      1.00      0.60
  30                34.9200      0.10      0.01
  31                18.4300      0.12      0.02
  32                10.6700      0.07      0.01
  34                 1.6701      0.01      0.00
  35                 2.9100      0.02      0.00
  36                 1.4550      0.01      0.00
  37               -21.3427      0.14      0.02
  38                 2.2099      0.01      0.00
  39                 2.9100      0.02      0.00
  40                 0.7001      0.00      0.00
  41                 0.9700      0.01      0.00
   
   
  Node Results at 4:00:00 hrs:
  --------------------------------------------------------
                     Demand      Head  Pressure  Flouride
  Node                  gpm        ft       psi      mg/l
  --------------------------------------------------------
  1                 -666.62    316.70    115.56    0.9900
  2                    7.12    312.03     91.87    0.9900
  3                   12.46    311.43    108.94    0.9949
  4                    7.12    310.98    108.75    1.0495
  5                    7.12    310.93     91.40    0.9939
  6                    4.45    308.82     79.65    0.9943
  7                    3.56    304.11     62.44    1.0387
  8                    8.01    304.11     84.11    1.0000
  9                   12.46    303.45     53.49    1.0387
  10                   4.45    304.11     75.44    1.0000
  11                  30.95    302.33     50.84    1.0388
  12                  14.24    299.57     38.81    1.0390
  13                   1.78    298.74     38.45    1.0388
  14                   1.78    298.35     42.62    1.0383
  15                   1.78    298.11     46.84    1.0364
  16                  17.80    298.20     64.22    1.0162
  17                  17.80    298.14     51.19    0.9893
  18                  17.80    298.14     85.85    0.9997
  19                   4.45    298.15     64.19    0.9995
  20                  16.91    298.34     55.61    0.9996
  21                  14.24    298.32     64.27    0.9999
  22                   8.90    298.32     42.60    0.9998
  23                   7.12    297.38     29.20    1.0168
  24                   9.79    297.89     46.75    1.0299
  25                   5.34    297.14     29.09    1.0166
  27                   7.12    297.13     72.42    0.9994
  28                   0.00    297.13     81.08    1.0000
  29                   6.23    297.13     81.08    0.9997
  30                   2.67    297.13     72.42    1.0000
  31                  15.13    297.13     46.42    0.9879
  32                  15.13    298.14     81.52    0.9996
  33                   1.34    298.32     51.27    1.0000
  34                   1.34    298.32     46.94    1.0000
  35                   0.00    297.13     81.08    1.0000
  36                   0.89    297.13     81.08    1.0000
  26                 379.35    297.00     26.87    0.9999  Tank
   
   
  Link Results at 4:00:00 hrs:
  ----------------------------------------------
                       Flow  Velocity  Headloss
  Link                  gpm       fps   /1000ft
  ----------------------------------------------
  1                666.6240      1.89      1.94
  2                553.0586      1.57      1.38
  3                106.4454      0.68      0.47
  4                 93.9854      0.60      0.37
  5                 86.8654      0.25      0.04
  6                632.8040      1.80      1.77
  7                628.3540      1.78      1.74
  8                 12.4600      0.04      0.00
  9                612.3340      1.74      1.66
  10                 4.4500      0.03      0.00
  11               599.8740      1.70      1.60
  12               568.9198      1.61      1.45
  13               554.6798      1.57      1.38
  14               460.4588      1.31      0.98
  15               415.9588      1.18      0.81
  16                92.4410      0.59      0.36
  17               -19.4610      0.12      0.02
  18                47.7870      0.31      0.11
  19                10.5261      0.03      0.00
  20                -7.2739      0.02      0.00
  21                26.8539      0.17      0.04
  22                42.7200      0.12      0.01
  23                12.9537      0.08      0.01
  24                -1.2863      0.01      0.00
  25                12.8563      0.08      0.01
  26               423.8498      1.20      0.84
  27               433.6398      1.23      0.88
  28               416.7298      1.18      0.81
  29               379.3498      1.08      0.68
  30                32.0400      0.09      0.01
  31                16.9100      0.11      0.02
  32                 9.7900      0.06      0.01
  34                 1.5324      0.01      0.00
  35                 2.6700      0.02      0.00
  36                 1.3350      0.01      0.00
  37               -22.4039      0.14      0.03
  38                 2.0276      0.01      0.00
  39                 2.6700      0.02      0.00
  40                 0.6424      0.00      0.00
  41                 0.8900      0.01      0.00
   
   
  Node Results at 5:00:00 hrs:
  --------------------------------------------------------
                     Demand      Head  Pressure  Flouride
  Node                  gpm        ft       psi      mg/l
  --------------------------------------------------------
  1                 -666.62    317.01    115.70    0.6400
  2                    9.52    312.34     92.01    0.6400
  3                   16.66    311.72    109.07    0.6705
  4                    9.52    311.30    108.89    0.9904
  5                    9.52    311.26     91.54    0.6954
  6                    5.95    309.21     79.82    0.6954
  7                    4.76    304.68     62.69    0.9946
  8                   10.71    304.68     84.35    1.0000
  9                   16.66    304.05     53.75    0.9946
  10                   5.95    304.68     75.69    1.0000
  11                  41.39    303.01     51.13    0.9946
  12                  19.04    300.54     39.23    0.9952
  13                   2.38    299.82     38.92    0.9954
  14                   2.38    299.48     43.10    0.9957
  15                   2.38    299.28     47.35    1.0007
  16                  23.80    299.32     64.70    1.0380
  17                  23.80    299.27     51.68    1.0318
  18                  23.80    299.27     86.34    0.9997
  19                   5.95    299.28     64.68    0.9848
  20                  22.61    299.45     56.09    0.9844
  21                  19.04    299.43     64.75    0.9998
  22                  11.90    299.43     43.08    0.9998
  23                   9.52    298.79     29.81    1.0362
  24                  13.09    299.13     47.29    1.0188
  25                   7.14    298.63     29.74    1.0371
  27                   9.52    298.61     73.06    0.9891
  28                   0.00    298.61     81.72    1.0000
  29                   8.33    298.61     81.72    0.9996
  30                   3.57    298.61     73.06    1.0000
  31                  20.23    298.62     47.07    0.9979
  32                  20.23    299.27     82.01    0.9991
  33                   1.78    299.43     51.75    1.0000
  34                   1.78    299.43     47.42    1.0000
  35                   0.00    298.61     81.72    1.0000
  36                   1.19    298.61     81.72    1.0000
  26                 282.52    298.55     27.54    1.0007  Tank
   
   
  Link Results at 5:00:00 hrs:
  ----------------------------------------------
                       Flow  Velocity  Headloss
  Link                  gpm       fps   /1000ft
  ----------------------------------------------
  1                666.6240      1.89      1.94
  2                549.2476      1.56      1.36
  3                107.8564      0.69      0.48
  4                 91.1964      0.58      0.35
  5                 81.6764      0.23      0.04
  6                621.4040      1.76      1.71
  7                615.4540      1.75      1.68
  8                 16.6600      0.05      0.00
  9                594.0340      1.69      1.57
  10                 5.9500      0.04      0.00
  11               577.3740      1.64      1.49
  12               535.9858      1.52      1.30
  13               516.9458      1.47      1.21
  14               426.5210      1.21      0.85
  15               367.0211      1.04      0.64
  16                88.0448      0.56      0.33
  17                 9.5352      0.06      0.01
  18                40.3320      0.26      0.08
  19                26.0672      0.07      0.00
  20                 2.2672      0.01      0.00
  21                23.9128      0.15      0.03
  22                57.1200      0.16      0.02
  23                17.3201      0.11      0.02
  24                -1.7199      0.01      0.00
  25                17.1899      0.11      0.02
  26               342.0158      0.97      0.56
  27               355.1058      1.01      0.61
  28               332.4958      0.94      0.54
  29               282.5158      0.80      0.40
  30                42.8400      0.12      0.01
  31                22.6100      0.14      0.03
  32                13.0900      0.08      0.01
  34                 2.0489      0.01      0.00
  35                 3.5700      0.02      0.00
  36                 1.7850      0.01      0.00
  37               -17.9628      0.11      0.02
  38                 2.7111      0.02      0.00
  39                 3.5700      0.02      0.00
  40                 0.8589      0.01      0.00
  41                 1.1900      0.01      0.00
   
   
  Node Results at 6:00:00 hrs:
  --------------------------------------------------------
                     Demand      Head  Pressure  Flouride
  Node                  gpm        ft       psi      mg/l
  --------------------------------------------------------
  1                 -430.53    306.69    111.22    0.4600
  2                   10.24    304.61     88.66    0.4600
  3                   17.92    304.32    105.86    0.4722
  4                   10.24    304.16    105.79    0.6400
  5                   10.24    304.15     88.46    0.5287
  6                    6.40    303.31     77.26    0.5291
  7                    5.12    301.50     61.31    0.6938
  8                   11.52    301.50     82.98    1.0000
  9                   17.92    301.26     52.54    0.6938
  10                   6.40    301.50     74.31    1.0000
  11                  44.52    300.88     50.21    0.6938
  12                  20.48    300.09     39.04    0.6955
  13                   2.56    299.87     38.94    0.6985
  14                   2.56    299.79     43.24    0.7352
  15                   2.56    299.75     47.56    0.8161
  16                  25.60    299.63     64.83    0.9956
  17                  25.60    299.61     51.83    1.0332
  18                  25.60    299.61     86.49    0.9997
  19                   6.40    299.61     64.83    1.0162
  20                  24.32    299.76     56.22    1.0333
  21                  20.48    299.74     64.88    0.9998
  22                  12.80    299.74     43.22    0.9998
  23                  10.24    299.72     30.21    0.9949
  24                  14.08    299.74     47.55    0.9166
  25                   7.68    299.71     30.20    0.9949
  27                  10.24    299.69     73.52    1.0158
  28                   0.00    299.68     82.19    0.9999
  29                   8.96    299.68     82.19    0.9996
  30                   3.84    299.68     73.52    1.0000
  31                  21.76    299.70     47.53    1.0362
  32                  21.76    299.61     82.16    0.9992
  33                   1.92    299.74     51.88    1.0000
  34                   1.92    299.73     47.55    1.0000
  35                   0.00    299.68     82.19    0.9999
  36                   1.28    299.68     82.19    1.0000
  26                  17.37    299.71     28.04    1.0008  Tank
   
   
  Link Results at 6:00:00 hrs:
  ----------------------------------------------
                       Flow  Velocity  Headloss
  Link                  gpm       fps   /1000ft
  ----------------------------------------------
  1                430.5280      1.22      0.87
  2                348.3534      0.99      0.58
  3                 71.9347      0.46      0.23
  4                 54.0147      0.34      0.13
  5                 43.7747      0.12      0.01
  6                381.8880      1.08      0.69
  7                375.4880      1.07      0.67
  8                 17.9200      0.05      0.00
  9                352.4480      1.00      0.60
  10                 6.4000      0.04      0.00
  11               334.5280      0.95      0.54
  12               290.0096      0.82      0.42
  13               269.5296      0.76      0.36
  14               206.3153      0.59      0.22
  15               142.3153      0.40      0.11
  16                60.6543      0.39      0.17
  17                44.3057      0.28      0.09
  18                19.9050      0.13      0.02
  19                38.6107      0.11      0.01
  20                13.0107      0.04      0.00
  21                15.1493      0.10      0.01
  22                61.4400      0.17      0.02
  23                18.6300      0.12      0.02
  24                -1.8500      0.01      0.00
  25                18.4900      0.12      0.02
  26                81.3696      0.23      0.04
  27                95.4496      0.27      0.05
  28                71.1296      0.20      0.03
  29                17.3696      0.05      0.00
  30                46.0800      0.13      0.01
  31                24.3200      0.16      0.03
  32                14.0800      0.09      0.01
  34                 2.2038      0.01      0.00
  35                 3.8400      0.02      0.00
  36                 1.9200      0.01      0.00
  37                -8.7493      0.06      0.00
  38                 2.9162      0.02      0.00
  39                 3.8400      0.02      0.00
  40                 0.9238      0.01      0.00
  41                 1.2800      0.01      0.00
   
   
  Node Results at 7:00:00 hrs:
  --------------------------------------------------------
                     Demand      Head  Pressure  Flouride
  Node                  gpm        ft       psi      mg/l
  --------------------------------------------------------
  1                    0.00    299.34    108.04    0.3500
  2                    5.36    299.34     86.37    0.3500
  3                    9.38    299.34    103.71    0.4600
  4                    5.36    299.34    103.71    0.4674
  5                    5.36    299.34     86.38    0.4212
  6                    3.35    299.35     75.55    0.5157
  7                    2.68    299.36     60.39    0.5241
  8                    6.03    299.36     82.05    1.0000
  9                    9.38    299.37     51.72    0.5249
  10                   3.35    299.36     73.39    1.0000
  11                  23.30    299.38     49.56    0.5265
  12                  10.72    299.44     38.76    0.6870
  13                   1.34    299.47     38.77    0.6937
  14                   1.34    299.49     43.11    0.6938
  15                   1.34    299.53     47.46    0.6943
  16                  13.40    299.44     64.75    0.7100
  17                  13.40    299.44     51.75    0.9978
  18                  13.40    299.43     86.41    1.0159
  19                   3.35    299.43     64.75    1.0162
  20                  12.73    299.49     56.11    0.9955
  21                  10.72    299.48     64.77    0.9998
  22                   6.70    299.48     43.10    0.9998
  23                   5.36    299.67     30.19    0.7900
  24                   7.37    299.57     47.47    0.6955
  25                   4.02    299.73     30.21    0.9166
  27                   5.36    299.72     73.54    1.0362
  28                   0.00    299.72     82.21    0.9999
  29                   4.69    299.72     82.21    0.9864
  30                   2.01    299.72     73.54    1.0000
  31                  11.39    299.73     47.54    0.9956
  32                  11.39    299.43     82.08    0.9937
  33                   1.00    299.48     51.77    0.9999
  34                   1.00    299.48     47.44    1.0000
  35                   0.00    299.72     82.21    0.9999
  36                   0.67    299.72     82.21    1.0000
  26                -216.26    299.78     28.07    1.0008  Tank
   
   
  Link Results at 7:00:00 hrs:
  ----------------------------------------------
                       Flow  Velocity  Headloss
  Link                  gpm       fps   /1000ft
  ----------------------------------------------
  1                 -0.0003      0.00      0.00
  2                -10.0620      0.03      0.00
  3                  4.7017      0.03      0.00
  4                 -4.6783      0.03      0.00
  5                -10.0383      0.03      0.00
  6                -25.4603      0.07      0.00
  7                -28.8103      0.08      0.01
  8                  9.3800      0.03      0.00
  9                -40.8703      0.12      0.01
  10                 3.3500      0.02      0.00
  11               -50.2503      0.14      0.02
  12               -73.5528      0.21      0.03
  13               -84.2729      0.24      0.04
  14              -105.5911      0.30      0.06
  15              -139.0911      0.39      0.11
  16                19.9783      0.13      0.02
  17                34.9617      0.22      0.06
  18                 1.0737      0.01      0.00
  19                22.6354      0.06      0.00
  20                 9.2354      0.03      0.00
  21                 5.5046      0.04      0.00
  22                32.1600      0.09      0.01
  23                 9.7517      0.06      0.01
  24                -0.9683      0.01      0.00
  25                 9.6783      0.06      0.01
  26              -182.7628      0.52      0.18
  27              -175.3929      0.50      0.16
  28              -188.1229      0.53      0.19
  29              -216.2628      0.61      0.24
  30                24.1200      0.07      0.00
  31                12.7300      0.08      0.01
  32                 7.3700      0.05      0.00
  34                 1.1536      0.01      0.00
  35                 2.0100      0.01      0.00
  36                 1.0050      0.01      0.00
  37                -2.1546      0.01      0.00
  38                 1.5264      0.01      0.00
  39                 2.0100      0.01      0.00
  40                 0.4836      0.00      0.00
  41                 0.6700      0.00      0.00
   
   
  Node Results at 8:00:00 hrs:
  --------------------------------------------------------
                     Demand      Head  Pressure  Flouride
  Node                  gpm        ft       psi      mg/l
  --------------------------------------------------------
  1                    0.00    298.46    107.66    0.3500
  2                    5.36    298.46     85.99    0.3500
  3                    9.38    298.46    103.32    0.4603
  4                    5.36    298.46    103.32    0.5362
  5                    5.36    298.46     85.99    0.4213
  6                    3.35    298.46     75.16    0.5233
  7                    2.68    298.48     60.00    0.5258
  8                    6.03    298.48     81.67    1.0000
  9                    9.38    298.48     51.34    0.5273
  10                   3.35    298.48     73.00    1.0000
  11                  23.30    298.50     49.18    0.5287
  12                  10.72    298.56     38.37    0.6950
  13                   1.34    298.58     38.38    0.7252
  14                   1.34    298.61     42.73    0.9934
  15                   1.34    298.64     47.07    1.0007
  16                  13.40    298.55     64.37    0.6952
  17                  13.40    298.55     51.37    0.7054
  18                  13.40    298.55     86.03    1.0339
  19                   3.35    298.55     64.37    1.0269
  20                  12.73    298.60     55.72    0.9765
  21                  10.72    298.59     64.39    0.9998
  22                   6.70    298.59     42.72    0.9998
  23                   5.36    298.79     29.81    1.0008
  24                   7.37    298.68     47.09    1.0008
  25                   4.02    298.84     29.83    1.0008
  27                   5.36    298.84     73.16    0.9956
  28                   0.00    298.84     81.82    0.9999
  29                   4.69    298.84     81.82    1.0158
  30                   2.01    298.84     73.16    1.0000
  31                  11.39    298.84     47.16    0.9956
  32                  11.39    298.55     81.70    0.9969
  33                   1.00    298.59     51.39    0.9999
  34                   1.00    298.59     47.05    1.0000
  35                   0.00    298.84     81.82    0.9999
  36                   0.67    298.84     81.82    1.0000
  26                -216.26    298.89     27.68    1.0008  Tank
   
   
  Link Results at 8:00:00 hrs:
  ----------------------------------------------
                       Flow  Velocity  Headloss
  Link                  gpm       fps   /1000ft
  ----------------------------------------------
  1                 -0.0000      0.00      0.00
  2                -10.0618      0.03      0.00
  3                  4.7018      0.03      0.00
  4                 -4.6782      0.03      0.00
  5                -10.0382      0.03      0.00
  6                -25.4600      0.07      0.00
  7                -28.8100      0.08      0.01
  8                  9.3800      0.03      0.00
  9                -40.8700      0.12      0.01
  10                 3.3500      0.02      0.00
  11               -50.2500      0.14      0.02
  12               -73.5526      0.21      0.03
  13               -84.2726      0.24      0.04
  14              -105.5909      0.30      0.06
  15              -139.0909      0.39      0.11
  16                19.9783      0.13      0.02
  17                34.9617      0.22      0.06
  18                 1.0737      0.01      0.00
  19                22.6354      0.06      0.00
  20                 9.2354      0.03      0.00
  21                 5.5046      0.04      0.00
  22                32.1600      0.09      0.01
  23                 9.7517      0.06      0.01
  24                -0.9683      0.01      0.00
  25                 9.6783      0.06      0.01
  26              -182.7626      0.52      0.18
  27              -175.3926      0.50      0.16
  28              -188.1226      0.53      0.19
  29              -216.2626      0.61      0.24
  30                24.1200      0.07      0.00
  31                12.7300      0.08      0.01
  32                 7.3700      0.05      0.00
  34                 1.1536      0.01      0.00
  35                 2.0100      0.01      0.00
  36                 1.0050      0.01      0.00
  37                -2.1546      0.01      0.00
  38                 1.5264      0.01      0.00
  39                 2.0100      0.01      0.00
  40                 0.4836      0.00      0.00
  41                 0.6700      0.00      0.00
   
   
  Node Results at 9:00:00 hrs:
  --------------------------------------------------------
                     Demand      Head  Pressure  Flouride
  Node                  gpm        ft       psi      mg/l
  --------------------------------------------------------
  1                    0.00    296.44    106.78    0.3500
  2                   10.72    296.44     85.12    0.3500
  3                   18.76    296.43    102.45    0.4603
  4                   10.72    296.44    102.45    0.6400
  5                   10.72    296.44     85.12    0.4213
  6                    6.70    296.46     74.30    0.5236
  7                    5.36    296.52     59.15    0.5271
  8                   12.06    296.52     80.82    1.0000
  9                   18.76    296.54     50.50    0.5280
  10                   6.70    296.52     72.15    1.0000
  11                  46.61    296.58     48.35    0.6047
  12                  21.44    296.80     37.61    0.9605
  13                   2.68    296.89     37.65    1.0005
  14                   2.68    296.99     42.02    1.0008
  15                   2.68    297.10     46.41    1.0008
  16                  26.80    296.78     63.60    0.6952
  17                  26.80    296.78     50.60    0.7054
  18                  26.80    296.77     85.26    0.9963
  19                   6.70    296.77     63.60    1.0376
  20                  25.46    296.96     55.01    0.6960
  21                  21.44    296.93     63.67    0.9864
  22                  13.40    296.93     42.00    0.9851
  23                  10.72    297.63     29.31    1.0008
  24                  14.74    297.25     46.47    1.0008
  25                   8.04    297.84     29.39    1.0008
  27                  10.72    297.81     72.71    0.9955
  28                   0.00    297.81     81.38    0.9999
  29                   9.38    297.81     81.38    1.0361
  30                   4.02    297.81     72.71    1.0000
  31                  22.78    297.83     46.72    0.9628
  32                  22.78    296.77     80.93    0.9969
  33                   2.01    296.93     50.67    0.9999
  34                   2.01    296.93     46.33    1.0000
  35                   0.00    297.81     81.38    0.9999
  36                   1.34    297.81     81.38    1.0000
  26                -432.53    298.01     27.30    1.0008  Tank
   
   
  Link Results at 9:00:00 hrs:
  ----------------------------------------------
                       Flow  Velocity  Headloss
  Link                  gpm       fps   /1000ft
  ----------------------------------------------
  1                 -0.0000      0.00      0.00
  2                -20.1235      0.06      0.00
  3                  9.4035      0.06      0.01
  4                 -9.3565      0.06      0.01
  5                -20.0765      0.06      0.00
  6                -50.9200      0.14      0.02
  7                -57.6200      0.16      0.02
  8                 18.7600      0.05      0.00
  9                -81.7400      0.23      0.04
  10                 6.7000      0.04      0.00
  11              -100.5000      0.29      0.06
  12              -147.1052      0.42      0.12
  13              -168.5452      0.48      0.15
  14              -211.1818      0.60      0.23
  15              -278.1818      0.79      0.39
  16                39.9566      0.26      0.08
  17                69.9234      0.45      0.22
  18                 2.1475      0.01      0.00
  19                45.2708      0.13      0.01
  20                18.4708      0.05      0.00
  21                11.0092      0.07      0.01
  22                64.3200      0.18      0.03
  23                19.5033      0.12      0.02
  24                -1.9367      0.01      0.00
  25                19.3567      0.12      0.02
  26              -365.5252      1.04      0.64
  27              -350.7852      1.00      0.59
  28              -376.2452      1.07      0.67
  29              -432.5252      1.23      0.87
  30                48.2400      0.14      0.02
  31                25.4600      0.16      0.03
  32                14.7400      0.09      0.01
  34                 2.3072      0.01      0.00
  35                 4.0200      0.03      0.00
  36                 2.0100      0.01      0.00
  37                -4.3092      0.03      0.00
  38                 3.0528      0.02      0.00
  39                 4.0200      0.03      0.00
  40                 0.9672      0.01      0.00
  41                 1.3400      0.01      0.00
   
   
  Node Results at 10:00:00 hrs:
  --------------------------------------------------------
                     Demand      Head  Pressure  Flouride
  Node                  gpm        ft       psi      mg/l
  --------------------------------------------------------
  1                    0.00    291.41    104.60    0.3500
  2                   19.68    291.41     82.94    0.3500
  3                   34.44    291.39    100.26    0.4603
  4                   19.68    291.41    100.27    0.6400
  5                   19.68    291.42     82.94    0.5060
  6                   12.30    291.48     72.14    0.5244
  7                    9.84    291.65     57.05    0.5617
  8                   22.14    291.65     78.71    0.9840
  9                   34.44    291.70     48.40    0.6892
  10                  12.30    291.64     70.04    1.0000
  11                  85.56    291.83     46.29    0.6936
  12                  39.36    292.52     35.76    1.0007
  13                   4.92    292.80     35.88    1.0008
  14                   4.92    293.09     40.34    1.0008
  15                   4.92    293.45     44.82    1.0008
  16                  49.20    292.45     61.72    0.6952
  17                  49.20    292.45     48.73    1.0006
  18                  49.20    292.42     83.38    0.7214
  19                  12.30    292.42     61.71    1.0376
  20                  46.74    293.00     53.30    0.7192
  21                  39.36    292.92     61.93    1.0336
  22                  24.60    292.92     40.26    1.0370
  23                  19.68    295.08     28.20    1.0008
  24                  27.06    293.90     45.02    1.0008
  25                  14.76    295.71     28.47    1.0008
  27                  19.68    295.64     71.77    0.9877
  28                   0.00    295.62     80.43    0.9999
  29                  17.22    295.62     80.43    0.9955
  30                   7.38    295.62     71.76    1.0000
  31                  41.82    295.68     45.79    1.0008
  32                  41.82    292.42     79.04    1.0216
  33                   3.69    292.92     48.93    0.9999
  34                   3.69    292.92     44.59    1.0000
  35                   0.00    295.62     80.43    0.9999
  36                   2.46    295.62     80.43    1.0000
  26                -794.04    296.24     26.54    1.0008  Tank
   
   
  Link Results at 10:00:00 hrs:
  ----------------------------------------------
                       Flow  Velocity  Headloss
  Link                  gpm       fps   /1000ft
  ----------------------------------------------
  1                  0.0000      0.00      0.00
  2                -36.9432      0.10      0.01
  3                 17.2632      0.11      0.02
  4                -17.1768      0.11      0.02
  5                -36.8568      0.10      0.01
  6                -93.4800      0.27      0.05
  7               -105.7800      0.30      0.06
  8                 34.4400      0.10      0.00
  9               -150.0600      0.43      0.12
  10                12.3000      0.08      0.00
  11              -184.5000      0.52      0.18
  12              -270.0588      0.77      0.36
  13              -309.4188      0.88      0.47
  14              -387.6920      1.10      0.71
  15              -510.6920      1.45      1.19
  16                73.3532      0.47      0.24
  17               128.3668      0.82      0.66
  18                 3.9423      0.03      0.00
  19                83.1091      0.24      0.04
  20                33.9091      0.10      0.01
  21                20.2109      0.13      0.02
  22               118.0800      0.33      0.08
  23                35.8046      0.23      0.06
  24                -3.5554      0.02      0.00
  25                35.5354      0.23      0.06
  26              -671.0388      1.90      1.97
  27              -643.9788      1.83      1.82
  28              -690.7188      1.96      2.08
  29              -794.0388      2.25      2.69
  30                88.5600      0.25      0.05
  31                46.7400      0.30      0.10
  32                27.0600      0.17      0.04
  34                 4.2355      0.03      0.00
  35                 7.3800      0.05      0.00
  36                 3.6900      0.02      0.00
  37                -7.9109      0.05      0.00
  38                 5.6045      0.04      0.00
  39                 7.3800      0.05      0.00
  40                 1.7755      0.01      0.00
  41                 2.4600      0.02      0.00
   
   
  Node Results at 11:00:00 hrs:
  --------------------------------------------------------
                     Demand      Head  Pressure  Flouride
  Node                  gpm        ft       psi      mg/l
  --------------------------------------------------------
  1                    0.00    292.14    104.92    0.3500
  2                    7.76    292.14     83.25    0.3500
  3                   13.58    292.13    100.58    0.4051
  4                    7.76    292.14    100.58    0.6400
  5                    7.76    292.14     83.25    0.5241
  6                    4.85    292.15     72.43    0.5244
  7                    3.88    292.18     57.27    1.0005
  8                    8.73    292.18     78.94    1.0323
  9                   13.58    292.19     48.61    1.0005
  10                   4.85    292.18     70.27    1.0000
  11                  33.74    292.21     46.45    1.0007
  12                  15.52    292.34     35.68    1.0008
  13                   1.94    292.39     35.70    1.0008
  14                   1.94    292.44     40.05    1.0008
  15                   1.94    292.50     44.41    1.0008
  16                  19.40    292.32     61.67    1.0007
  17                  19.40    292.32     48.67    1.0006
  18                  19.40    292.32     83.33    1.0006
  19                   4.85    292.32     61.67    0.9953
  20                  18.43    292.42     53.05    1.0007
  21                  15.52    292.41     61.70    0.7234
  22                   9.70    292.41     40.04    0.6960
  23                   7.76    292.79     27.21    1.0008
  24                  10.67    292.58     44.45    1.0008
  25                   5.82    292.90     27.26    1.0008
  27                   7.76    292.89     70.58    1.0008
  28                   0.00    292.89     79.25    0.9999
  29                   6.79    292.89     79.25    1.0007
  30                   2.91    292.89     70.58    1.0000
  31                  16.49    292.90     44.59    1.0008
  32                  16.49    292.32     79.00    0.7925
  33                   1.45    292.41     48.71    0.9999
  34                   1.45    292.41     44.37    1.0000
  35                   0.00    292.89     79.25    0.9999
  36                   0.97    292.89     79.25    1.0000
  26                -313.10    293.00     25.13    1.0008  Tank
   
   
  Link Results at 11:00:00 hrs:
  ----------------------------------------------
                       Flow  Velocity  Headloss
  Link                  gpm       fps   /1000ft
  ----------------------------------------------
  1                  0.0000      0.00      0.00
  2                -14.5670      0.04      0.00
  3                  6.8070      0.04      0.00
  4                 -6.7730      0.04      0.00
  5                -14.5330      0.04      0.00
  6                -36.8600      0.10      0.01
  7                -41.7100      0.12      0.01
  8                 13.5800      0.04      0.00
  9                -59.1700      0.17      0.02
  10                 4.8500      0.03      0.00
  11               -72.7500      0.21      0.03
  12              -106.4866      0.30      0.07
  13              -122.0066      0.35      0.08
  14              -152.8704      0.43      0.13
  15              -201.3704      0.57      0.21
  16                28.9238      0.18      0.04
  17                50.6162      0.32      0.12
  18                 1.5545      0.01      0.00
  19                32.7707      0.09      0.01
  20                13.3707      0.04      0.00
  21                 7.9693      0.05      0.00
  22                46.5600      0.13      0.01
  23                14.1181      0.09      0.01
  24                -1.4019      0.01      0.00
  25                14.0119      0.09      0.01
  26              -264.5966      0.75      0.35
  27              -253.9266      0.72      0.33
  28              -272.3566      0.77      0.37
  29              -313.0966      0.89      0.48
  30                34.9200      0.10      0.01
  31                18.4300      0.12      0.02
  32                10.6700      0.07      0.01
  34                 1.6701      0.01      0.00
  35                 2.9100      0.02      0.00
  36                 1.4550      0.01      0.00
  37                -3.1193      0.02      0.00
  38                 2.2099      0.01      0.00
  39                 2.9100      0.02      0.00
  40                 0.7001      0.00      0.00
  41                 0.9700      0.01      0.00
   
   
  Node Results at 12:00:00 hrs:
  --------------------------------------------------------
                     Demand      Head  Pressure  Flouride
  Node                  gpm        ft       psi      mg/l
  --------------------------------------------------------
  1                 -555.52    305.13    110.55    0.3500
  2                    7.36    301.81     87.44    0.4213
  3                   12.88    301.36    104.58    0.4052
  4                    7.36    301.06    104.45    0.8147
  5                    7.36    301.03     87.11    0.5242
  6                    4.60    299.55     75.63    0.5244
  7                    3.68    296.29     59.05    1.0006
  8                    8.28    296.28     80.72    0.7944
  9                   12.88    295.83     50.19    1.0007
  10                   4.60    296.28     72.05    1.0000
  11                  32.00    295.07     47.69    1.0007
  12                  14.72    293.25     36.07    1.0008
  13                   1.84    292.71     35.84    1.0008
  14                   1.84    292.46     40.06    1.0008
  15                   1.84    292.31     44.33    1.0008
  16                  18.40    292.35     61.68    1.0008
  17                  18.40    292.31     48.67    1.0006
  18                  18.40    292.31     83.33    1.0006
  19                   4.60    292.32     61.67    0.9953
  20                  17.48    292.45     53.06    1.0008
  21                  14.72    292.43     61.72    0.7234
  22                   9.20    292.43     40.05    0.6960
  23                   7.36    291.92     26.83    1.0008
  24                  10.12    292.19     44.28    1.0008
  25                   5.52    291.79     26.77    1.0008
  27                   7.36    291.78     70.10    1.0008
  28                   0.00    291.77     78.76    0.9999
  29                   6.44    291.77     78.76    1.0007
  30                   2.76    291.77     70.10    1.0000
  31                  15.64    291.78     44.10    1.0008
  32                  15.64    292.31     79.00    0.8453
  33                   1.38    292.43     48.72    0.9999
  34                   1.38    292.43     44.38    1.0000
  35                   0.00    291.77     78.76    0.9999
  36                   0.92    291.77     78.76    1.0000
  26                 258.56    291.72     24.58    1.0008  Tank
   
   
  Link Results at 12:00:00 hrs:
  ----------------------------------------------
                       Flow  Velocity  Headloss
  Link                  gpm       fps   /1000ft
  ----------------------------------------------
  1                555.5200      1.58      1.39
  2                458.6111      1.30      0.97
  3                 89.5489      0.57      0.34
  4                 76.6689      0.49      0.26
  5                 69.3089      0.20      0.03
  6                520.5600      1.48      1.23
  7                515.9600      1.46      1.21
  8                 12.8800      0.04      0.00
  9                499.4000      1.42      1.14
  10                 4.6000      0.03      0.00
  11               486.5200      1.38      1.09
  12               454.5224      1.29      0.96
  13               439.8024      1.25      0.90
  14               363.3970      1.03      0.63
  15               317.3970      0.90      0.49
  16                74.5654      0.48      0.24
  17                 0.8746      0.01      0.00
  18                35.5170      0.23      0.06
  19                17.9916      0.05      0.00
  20                -0.4084      0.00      0.00
  21                20.6484      0.13      0.02
  22                44.1600      0.13      0.01
  23                13.3903      0.09      0.01
  24                -1.3297      0.01      0.00
  25                13.2897      0.08      0.01
  26               304.5624      0.86      0.46
  27               314.6824      0.89      0.48
  28               297.2024      0.84      0.44
  29               258.5624      0.73      0.34
  30                33.1200      0.09      0.01
  31                17.4800      0.11      0.02
  32                10.1200      0.06      0.01
  34                 1.5840      0.01      0.00
  35                 2.7600      0.02      0.00
  36                 1.3800      0.01      0.00
  37               -16.0484      0.10      0.01
  38                 2.0960      0.01      0.00
  39                 2.7600      0.02      0.00
  40                 0.6640      0.00      0.00
  41                 0.9200      0.01      0.00
   
   
  Node Results at 13:00:00 hrs:
  --------------------------------------------------------
                     Demand      Head  Pressure  Flouride
  Node                  gpm        ft       psi      mg/l
  --------------------------------------------------------
  1                 -694.40    315.17    114.90    0.1700
  2                    5.44    310.14     91.05    0.1700
  3                    9.52    309.50    108.11    0.3500
  4                    5.44    308.99    107.89    0.3500
  5                    5.44    308.94     90.53    0.2055
  6                    3.40    306.59     78.68    0.2107
  7                    2.72    301.37     61.25    0.3846
  8                    6.12    301.37     82.92    0.6942
  9                    9.52    300.62     52.26    0.4578
  10                   3.40    301.37     74.25    1.0000
  11                  23.65    299.34     49.55    0.5207
  12                  10.88    296.12     37.31    0.5539
  13                   1.36    295.13     36.89    0.7466
  14                   1.36    294.65     41.01    0.9229
  15                   1.36    294.34     45.21    0.9879
  16                  13.60    294.54     62.63    1.0005
  17                  13.60    294.46     49.60    1.0007
  18                  13.60    294.46     84.26    1.0004
  19                   3.40    294.48     62.60    0.6951
  20                  12.92    294.65     54.01    1.0007
  21                  10.88    294.64     62.67    1.0006
  22                   6.80    294.64     41.01    1.0007
  23                   5.44    293.33     27.44    1.0006
  24                   7.48    294.04     45.08    0.9993
  25                   4.08    292.98     27.29    1.0006
  27                   5.44    292.98     70.62    1.0008
  28                   0.00    292.98     79.28    0.9999
  29                   4.76    292.98     79.28    1.0008
  30                   2.04    292.98     70.62    1.0000
  31                  11.56    292.98     44.62    1.0008
  32                  11.56    294.46     79.93    1.0036
  33                   1.02    294.64     49.67    0.9999
  34                   1.02    294.64     45.34    1.0000
  35                   0.00    292.98     79.28    0.9999
  36                   0.68    292.98     79.28    1.0000
  26                 474.91    292.78     25.03    1.0008  Tank
   
   
  Link Results at 13:00:00 hrs:
  ----------------------------------------------
                       Flow  Velocity  Headloss
  Link                  gpm       fps   /1000ft
  ----------------------------------------------
  1                694.4000      1.97      2.10
  2                579.2708      1.64      1.50
  3                109.6892      0.70      0.50
  4                100.1692      0.64      0.42
  5                 94.7292      0.27      0.05
  6                668.5600      1.90      1.95
  7                665.1600      1.89      1.94
  8                  9.5200      0.03      0.00
  9                652.9200      1.85      1.87
  10                 3.4000      0.02      0.00
  11               643.4000      1.83      1.82
  12               619.7496      1.76      1.70
  13               608.8696      1.73      1.64
  14               510.7474      1.45      1.19
  15               476.7474      1.35      1.05
  16                96.7622      0.62      0.39
  17               -41.0022      0.26      0.08
  18                53.6328      0.34      0.13
  19                -0.9694      0.00      0.00
  20               -14.5694      0.04      0.00
  21                29.5294      0.19      0.04
  22                32.6400      0.09      0.01
  23                 9.8972      0.06      0.01
  24                -0.9828      0.01      0.00
  25                 9.8228      0.06      0.01
  26               508.9096      1.44      1.18
  27               516.3896      1.46      1.21
  28               503.4696      1.43      1.16
  29               474.9096      1.35      1.04
  30                24.4800      0.07      0.00
  31                12.9200      0.08      0.01
  32                 7.4800      0.05      0.00
  34                 1.1708      0.01      0.00
  35                 2.0400      0.01      0.00
  36                 1.0200      0.01      0.00
  37               -26.1294      0.17      0.03
  38                 1.5492      0.01      0.00
  39                 2.0400      0.01      0.00
  40                 0.4908      0.00      0.00
  41                 0.6800      0.00      0.00
   
   
  Node Results at 14:00:00 hrs:
  --------------------------------------------------------
                     Demand      Head  Pressure  Flouride
  Node                  gpm        ft       psi      mg/l
  --------------------------------------------------------
  1                 -694.40    313.86    114.33    0.1700
  2                   11.44    308.83     90.49    0.1700
  3                   20.02    308.15    107.52    0.1700
  4                   11.44    307.71    107.33    0.1703
  5                   11.44    307.67     89.98    0.1955
  6                    7.15    305.50     78.21    0.2082
  7                    5.72    300.74     60.98    0.2374
  8                   12.87    300.73     82.65    0.5268
  9                   20.02    300.08     52.03    0.2575
  10                   7.15    300.73     73.98    1.0000
  11                  49.74    299.01     49.40    0.2231
  12                  22.88    296.53     37.49    0.2082
  13                   2.86    295.81     37.18    0.2214
  14                   2.86    295.47     41.37    0.2666
  15                   2.86    295.30     45.63    0.3857
  16                  28.60    295.28     62.95    0.5251
  17                  28.60    295.24     49.93    0.9913
  18                  28.60    295.24     84.60    1.0006
  19                   7.15    295.24     62.93    1.0005
  20                  27.17    295.44     54.35    1.0007
  21                  22.88    295.41     63.01    1.0006
  22                  14.30    295.41     41.34    1.0007
  23                  11.44    294.90     28.12    0.4360
  24                  15.73    295.17     45.57    0.4189
  25                   8.58    294.77     28.07    0.4714
  27                  11.44    294.75     71.38    1.0007
  28                   0.00    294.74     80.05    0.9999
  29                  10.01    294.74     80.05    1.0008
  30                   4.29    294.74     71.38    1.0000
  31                  24.31    294.76     45.39    1.0005
  32                  24.31    295.24     80.26    0.6956
  33                   2.14    295.41     50.01    0.9999
  34                   2.14    295.41     45.67    1.0000
  35                   0.00    294.74     80.05    0.9999
  36                   1.43    294.74     80.05    1.0000
  26                 232.82    294.72     25.88    0.9934  Tank
   
   
  Link Results at 14:00:00 hrs:
  ----------------------------------------------
                       Flow  Velocity  Headloss
  Link                  gpm       fps   /1000ft
  ----------------------------------------------
  1                694.4000      1.97      2.10
  2                569.7347      1.62      1.45
  3                113.2253      0.72      0.53
  4                 93.2053      0.59      0.37
  5                 81.7653      0.23      0.04
  6                640.0600      1.82      1.80
  7                632.9100      1.80      1.77
  8                 20.0200      0.06      0.00
  9                607.1700      1.72      1.64
  10                 7.1500      0.05      0.00
  11               587.1500      1.67      1.54
  12               537.4146      1.52      1.30
  13               514.5346      1.46      1.20
  14               421.1316      1.19      0.83
  15               349.6316      0.99      0.59
  16                90.5430      0.58      0.35
  17                26.7170      0.17      0.04
  18                38.1568      0.24      0.07
  19                36.2737      0.10      0.01
  20                 7.6737      0.02      0.00
  21                23.7863      0.15      0.03
  22                68.6400      0.19      0.03
  23                20.8132      0.13      0.02
  24                -2.0668      0.01      0.00
  25                20.6568      0.13      0.02
  26               304.3246      0.86      0.46
  27               320.0546      0.91      0.50
  28               292.8846      0.83      0.42
  29               232.8246      0.66      0.28
  30                51.4800      0.15      0.02
  31                27.1700      0.17      0.04
  32                15.7300      0.10      0.01
  34                 2.4621      0.02      0.00
  35                 4.2900      0.03      0.00
  36                 2.1450      0.01      0.00
  37               -16.6363      0.11      0.02
  38                 3.2579      0.02      0.00
  39                 4.2900      0.03      0.00
  40                 1.0321      0.01      0.00
  41                 1.4300      0.01      0.00
   
   
  Node Results at 15:00:00 hrs:
  --------------------------------------------------------
                     Demand      Head  Pressure  Flouride
  Node                  gpm        ft       psi      mg/l
  --------------------------------------------------------
  1                 -694.40    318.40    116.30    0.1300
  2                    4.88    313.37     92.45    0.1300
  3                    8.54    312.73    109.51    0.1303
  4                    4.88    312.22    109.29    0.1700
  5                    4.88    312.17     91.93    0.1351
  6                    3.05    309.80     80.08    0.1383
  7                    2.44    304.53     62.63    0.1945
  8                    5.49    304.53     84.29    0.5268
  9                    8.54    303.78     53.63    0.1945
  10                   3.05    304.53     75.62    1.0000
  11                  21.22    302.48     50.90    0.1945
  12                   9.76    299.18     38.64    0.2053
  13                   1.22    298.17     38.20    0.2134
  14                   1.22    297.68     42.32    0.2309
  15                   1.22    297.35     46.51    0.2406
  16                  12.20    297.58     63.95    0.2103
  17                  12.20    297.50     50.91    0.6390
  18                  12.20    297.50     85.58    1.0004
  19                   3.05    297.52     63.92    1.0005
  20                  11.59    297.67     55.32    0.9984
  21                   9.76    297.66     63.98    1.0006
  22                   6.10    297.66     42.32    1.0007
  23                   4.88    296.27     28.71    0.2375
  24                   6.71    297.02     46.37    0.2405
  25                   3.66    295.89     28.55    0.2247
  27                   4.88    295.89     71.88    1.0005
  28                   0.00    295.89     80.54    0.9999
  29                   4.27    295.89     80.55    1.0006
  30                   1.83    295.89     71.88    0.9999
  31                  10.37    295.89     45.88    0.5688
  32                  10.37    297.50     81.24    0.9197
  33                   0.92    297.66     50.98    0.9999
  34                   0.92    297.66     46.65    0.9999
  35                   0.00    295.89     80.54    0.9897
  36                   0.61    295.89     80.54    1.0000
  26                 497.50    295.67     26.29    0.9828  Tank
   
   
  Link Results at 15:00:00 hrs:
  ----------------------------------------------
                       Flow  Velocity  Headloss
  Link                  gpm       fps   /1000ft
  ----------------------------------------------
  1                694.4000      1.97      2.10
  2                580.1729      1.65      1.50
  3                109.3471      0.70      0.49
  4                100.8071      0.64      0.42
  5                 95.9271      0.27      0.05
  6                671.2200      1.90      1.97
  7                668.1700      1.90      1.95
  8                  8.5400      0.02      0.00
  9                657.1900      1.86      1.89
  10                 3.0500      0.02      0.00
  11               648.6500      1.84      1.85
  12               627.4342      1.78      1.74
  13               617.6742      1.75      1.69
  14               519.9134      1.47      1.23
  15               489.4134      1.39      1.10
  16                96.5408      0.62      0.39
  17               -46.5208      0.30      0.10
  18                54.4859      0.35      0.14
  19                -4.2349      0.01      0.00
  20               -16.4349      0.05      0.00
  21                29.8549      0.19      0.04
  22                29.2800      0.08      0.01
  23                 8.8784      0.06      0.00
  24                -0.8816      0.01      0.00
  25                 8.8116      0.06      0.00
  26               528.0042      1.50      1.26
  27               534.7142      1.52      1.29
  28               523.1242      1.48      1.24
  29               497.5042      1.41      1.13
  30                21.9600      0.06      0.00
  31                11.5900      0.07      0.01
  32                 6.7100      0.04      0.00
  34                 1.0503      0.01      0.00
  35                 1.8300      0.01      0.00
  36                 0.9150      0.01      0.00
  37               -26.8049      0.17      0.04
  38                 1.3897      0.01      0.00
  39                 1.8300      0.01      0.00
  40                 0.4403      0.00      0.00
  41                 0.6100      0.00      0.00
   
   
  Node Results at 16:00:00 hrs:
  --------------------------------------------------------
                     Demand      Head  Pressure  Flouride
  Node                  gpm        ft       psi      mg/l
  --------------------------------------------------------
  1                 -694.40    321.96    117.84    0.1300
  2                    2.48    316.93     94.00    0.1300
  3                    4.34    316.31    111.06    0.1300
  4                    2.48    315.77    110.83    0.1301
  5                    2.48    315.71     93.47    0.1357
  6                    1.55    313.27     81.58    0.1357
  7                    1.24    307.81     64.05    0.1361
  8                    2.79    307.81     85.71    0.5268
  9                    4.34    307.02     55.04    0.1362
  10                   1.55    307.81     77.05    1.0000
  11                  10.78    305.64     52.27    0.1364
  12                   4.96    302.01     39.87    0.1378
  13                   0.62    300.88     39.38    0.1383
  14                   0.62    300.31     43.47    0.1407
  15                   0.62    299.91     47.62    0.2261
  16                   6.20    300.31     65.13    0.1939
  17                   6.20    300.22     52.09    0.2682
  18                   6.20    300.23     86.76    1.0006
  19                   1.55    300.25     65.10    0.6049
  20                   5.89    300.31     56.46    0.3896
  21                   4.96    300.31     65.13    1.0006
  22                   3.10    300.31     43.46    1.0006
  23                   2.48    298.51     29.68    0.2551
  24                   3.41    299.49     47.44    0.2359
  25                   1.86    298.01     29.47    0.2623
  27                   2.48    298.01     72.80    0.9620
  28                   0.00    298.01     81.47    0.9999
  29                   2.17    298.01     81.47    1.0006
  30                   0.93    298.01     72.80    0.9999
  31                   5.27    298.01     46.80    0.4020
  32                   5.27    300.23     82.43    1.0004
  33                   0.46    300.31     52.13    0.9999
  34                   0.46    300.31     47.80    0.9999
  35                   0.00    298.01     81.47    1.0120
  36                   0.31    298.01     81.47    1.0000
  26                 594.34    297.70     27.17    0.9581  Tank
   
   
  Link Results at 16:00:00 hrs:
  ----------------------------------------------
                       Flow  Velocity  Headloss
  Link                  gpm       fps   /1000ft
  ----------------------------------------------
  1                694.4000      1.97      2.10
  2                584.0620      1.66      1.52
  3                107.8581      0.69      0.48
  4                103.5181      0.66      0.45
  5                101.0381      0.29      0.06
  6                682.6200      1.94      2.03
  7                681.0699      1.93      2.02
  8                  4.3400      0.01      0.00
  9                675.4900      1.92      1.99
  10                 1.5500      0.01      0.00
  11               671.1500      1.90      1.97
  12               660.3682      1.87      1.91
  13               655.4082      1.86      1.88
  14               560.4743      1.59      1.41
  15               544.9743      1.55      1.34
  16                94.3139      0.60      0.37
  17               -68.8939      0.44      0.21
  18                57.4508      0.37      0.15
  19               -17.6431      0.05      0.00
  20               -23.8431      0.07      0.00
  21                30.6631      0.20      0.05
  22                14.8800      0.04      0.00
  23                 4.5120      0.03      0.00
  24                -0.4480      0.00      0.00
  25                 4.4780      0.03      0.00
  26               609.8382      1.73      1.65
  27               613.2482      1.74      1.67
  28               607.3582      1.72      1.64
  29               594.3383      1.69      1.57
  30                11.1600      0.03      0.00
  31                 5.8900      0.04      0.00
  32                 3.4100      0.02      0.00
  34                 0.5337      0.00      0.00
  35                 0.9300      0.01      0.00
  36                 0.4650      0.00      0.00
  37               -29.1131      0.19      0.04
  38                 0.7063      0.00      0.00
  39                 0.9300      0.01      0.00
  40                 0.2237      0.00      0.00
  41                 0.3100      0.00      0.00
   
   
  Node Results at 17:00:00 hrs:
  --------------------------------------------------------
                     Demand      Head  Pressure  Flouride
  Node                  gpm        ft       psi      mg/l
  --------------------------------------------------------
  1                 -104.16    300.34    108.47    0.1300
  2                    6.24    300.19     86.74    0.1300
  3                   10.92    300.17    104.06    0.1300
  4                    6.24    300.16    104.06    0.1300
  5                    6.24    300.16     86.73    0.1300
  6                    3.90    300.12     75.88    0.1301
  7                    3.12    300.04     60.68    0.1321
  8                    7.02    300.04     82.34    0.5268
  9                   10.92    300.03     52.01    0.1326
  10                   3.90    300.04     73.68    1.0000
  11                  27.13    300.02     49.84    0.1334
  12                  12.48    300.02     39.00    0.1352
  13                   1.56    300.02     39.00    0.1356
[...]
  11               578.0980      1.64      1.49
  12               549.9262      1.56      1.36
  13               536.9662      1.52      1.30
  14               446.5122      1.27      0.93
  15               406.0122      1.15      0.78
  16                88.8340      0.57      0.34
  17               -22.4140      0.14      0.03
  18                46.5840      0.30      0.10
  19                 7.9700      0.02      0.00
  20                -8.2300      0.02      0.00
  21                26.0500      0.17      0.03
  22                38.8800      0.11      0.01
  23                11.7893      0.08      0.01
  24                -1.1707      0.01      0.00
  25                11.7007      0.07      0.01
  26               417.8962      1.19      0.82
  27               426.8062      1.21      0.85
  28               411.4162      1.17      0.80
  29               377.3962      1.07      0.68
  30                29.1600      0.08      0.01
  31                15.3900      0.10      0.01
  32                 8.9100      0.06      0.00
  34                 1.3946      0.01      0.00
  35                 2.4300      0.02      0.00
  36                 1.2150      0.01      0.00
  37               -22.0000      0.14      0.03
  38                 1.8454      0.01      0.00
  39                 2.4300      0.02      0.00
  40                 0.5846      0.00      0.00
  41                 0.8100      0.01      0.00
   
   
  Node Results at 52:00:00 hrs:
  --------------------------------------------------------
                     Demand      Head  Pressure  Flouride
  Node                  gpm        ft       psi      mg/l
  --------------------------------------------------------
  1                 -638.85    312.66    113.81    0.7200
  2                    7.04    308.35     90.28    0.7200
  3                   12.32    307.79    107.37    0.6175
  4                    7.04    307.38    107.19    0.3500
  5                    7.04    307.33     89.84    0.6333
  6                    4.40    305.38     78.16    0.6333
  7                    3.52    301.05     61.12    0.3144
  8                    7.92    301.05     82.78    0.0871
  9                   12.32    300.44     52.19    0.3144
  10                   4.40    301.05     74.12    0.0902
  11                  30.61    299.41     49.57    0.3144
  12                  14.08    296.89     37.65    0.3140
  13                   1.76    296.13     37.32    0.3031
  14                   1.76    295.78     41.50    0.2576
  15                   1.76    295.56     45.74    0.2152
  16                  17.60    295.63     63.10    0.0854
  17                  17.60    295.58     50.08    0.0860
  18                  17.60    295.58     84.74    0.7477
  19                   4.40    295.59     63.08    0.7684
  20                  16.72    295.76     54.49    0.7684
  21                  14.08    295.75     63.15    0.7619
  22                   8.80    295.75     41.49    0.7684
  23                   7.04    294.91     28.13    0.1209
  24                   9.68    295.36     45.65    0.1498
  25                   5.28    294.69     28.03    0.1208
  27                   7.04    294.68     71.36    0.7682
  28                   0.00    294.68     80.02    0.0906
  29                   6.16    294.68     80.02    0.7684
  30                   2.64    294.68     71.35    0.9467
  31                  14.96    294.69     45.36    0.7682
  32                  14.96    295.58     80.41    0.7682
  33                   1.32    295.75     50.15    0.1033
  34                   1.32    295.75     45.82    0.9299
  35                   0.00    294.68     80.02    0.8821
  36                   0.88    294.68     80.02    0.2380
  26                 354.80    294.57     25.81    0.7465  Tank
   
   
  Link Results at 52:00:00 hrs:
  ----------------------------------------------
                       Flow  Velocity  Headloss
  Link                  gpm       fps   /1000ft
  ----------------------------------------------
  1                638.8480      1.81      1.80
  2                529.6688      1.50      1.27
  3                102.1392      0.65      0.43
  4                 89.8192      0.57      0.34
  5                 82.7792      0.23      0.04
  6                605.4080      1.72      1.63
  7                601.0080      1.70      1.60
  8                 12.3200      0.03      0.00
  9                585.1680      1.66      1.53
  10                 4.4000      0.03      0.00
  11               572.8480      1.63      1.47
  12               542.2416      1.54      1.33
  13               528.1616      1.50      1.26
  14               438.0157      1.24      0.89
  15               394.0157      1.12      0.73
  16                88.3859      0.56      0.33
  17               -16.2259      0.10      0.01
  18                45.2635      0.29      0.10
  19                11.4376      0.03      0.00
  20                -6.1624      0.02      0.00
  21                25.5224      0.16      0.03
  22                42.2400      0.12      0.01
  23                12.8081      0.08      0.01
  24                -1.2719      0.01      0.00
  25                12.7119      0.08      0.01
  26               398.8016      1.13      0.75
  27               408.4816      1.16      0.78
  28               391.7616      1.11      0.73
  29               354.8016      1.01      0.60
  30                31.6800      0.09      0.01
  31                16.7200      0.11      0.02
  32                 9.6800      0.06      0.01
  34                 1.5151      0.01      0.00
  35                 2.6400      0.02      0.00
  36                 1.3200      0.01      0.00
  37               -21.1224      0.13      0.02
  38                 2.0049      0.01      0.00
  39                 2.6400      0.02      0.00
  40                 0.6351      0.00      0.00
  41                 0.8800      0.01      0.00
   
   
  Node Results at 53:00:00 hrs:
  --------------------------------------------------------
                     Demand      Head  Pressure  Flouride
  Node                  gpm        ft       psi      mg/l
  --------------------------------------------------------
  1                 -638.85    314.41    114.57    0.8200
  2                    6.48    310.09     91.03    0.8200
  3                   11.34    309.53    108.12    0.7932
  4                    6.48    309.12    107.94    0.7200
  5                    6.48    309.07     90.59    0.7565
  6                    4.05    307.11     78.91    0.7532
  7                    3.24    302.73     61.85    0.6354
  8                    7.29    302.73     83.51    0.0871
  9                   11.34    302.11     52.91    0.6354
  10                   4.05    302.73     74.84    0.0902
  11                  28.17    301.07     50.29    0.6353
  12                  12.96    298.48     38.34    0.6333
  13                   1.62    297.70     38.00    0.6158
  14                   1.62    297.33     42.17    0.5521
  15                   1.62    297.10     46.41    0.4669
  16                  16.20    297.20     63.78    0.3150
  17                  16.20    297.14     50.76    0.0896
  18                  16.20    297.14     85.42    0.5969
  19                   4.05    297.15     63.76    0.7684
  20                  15.39    297.32     55.17    0.0863
  21                  12.96    297.31     63.83    0.7619
  22                   8.10    297.31     42.16    0.7684
  23                   6.48    296.39     28.77    0.3358
  24                   8.91    296.88     46.31    0.3791
  25                   4.86    296.15     28.66    0.3322
  27                   6.48    296.15     71.99    0.7682
  28                   0.00    296.14     80.66    0.3066
  29                   5.67    296.14     80.66    0.7683
  30                   2.43    296.14     71.99    0.9467
  31                  13.77    296.15     46.00    0.0929
  32                  13.77    297.14     81.09    0.7684
  33                   1.22    297.31     50.83    0.1033
  34                   1.22    297.31     46.50    0.9299
  35                   0.00    296.14     80.66    0.8821
  36                   0.81    296.14     80.66    0.9300
  26                 377.40    296.02     26.44    0.7348  Tank
   
   
  Link Results at 53:00:00 hrs:
  ----------------------------------------------
                       Flow  Velocity  Headloss
  Link                  gpm       fps   /1000ft
  ----------------------------------------------
  1                638.8480      1.81      1.80
  2                530.5630      1.51      1.27
  3                101.8050      0.65      0.43
  4                 90.4650      0.58      0.35
  5                 83.9850      0.24      0.04
  6                608.0680      1.72      1.64
  7                604.0180      1.71      1.62
  8                 11.3400      0.03      0.00
  9                589.4380      1.67      1.55
  10                 4.0500      0.03      0.00
  11               578.0980      1.64      1.49
  12               549.9262      1.56      1.36
  13               536.9662      1.52      1.30
  14               446.5121      1.27      0.93
  15               406.0121      1.15      0.78
  16                88.8341      0.57      0.34
  17               -22.4141      0.14      0.03
  18                46.5841      0.30      0.10
  19                 7.9700      0.02      0.00
  20                -8.2300      0.02      0.00
  21                26.0500      0.17      0.03
  22                38.8800      0.11      0.01
  23                11.7893      0.08      0.01
  24                -1.1707      0.01      0.00
  25                11.7007      0.07      0.01
  26               417.8962      1.19      0.82
  27               426.8062      1.21      0.85
  28               411.4162      1.17      0.80
  29               377.3962      1.07      0.68
  30                29.1600      0.08      0.01
  31                15.3900      0.10      0.01
  32                 8.9100      0.06      0.00
  34                 1.3946      0.01      0.00
  35                 2.4300      0.02      0.00
  36                 1.2150      0.01      0.00
  37               -22.0000      0.14      0.03
  38                 1.8454      0.01      0.00
  39                 2.4300      0.02      0.00
  40                 0.5846      0.00      0.00
  41                 0.8100      0.01      0.00
   
   
  Node Results at 54:00:00 hrs:
  --------------------------------------------------------
                     Demand      Head  Pressure  Flouride
  Node                  gpm        ft       psi      mg/l
  --------------------------------------------------------
  1                 -638.85    315.95    115.24    0.9200
  2                    6.48    311.64     91.70    0.9200
  3                   11.34    311.07    108.79    0.8923
  4                    6.48    310.66    108.61    0.8200
  5                    6.48    310.62     91.26    0.8927
  6                    4.05    308.65     79.57    0.8874
  7                    3.24    304.28     62.51    0.7561
  8                    7.29    304.27     84.18    0.0871
  9                   11.34    303.66     53.58    0.7561
  10                   4.05    304.27     75.51    0.1964
  11                  28.17    302.61     50.96    0.7559
  12                  12.96    300.02     39.01    0.7533
  13                   1.62    299.24     38.67    0.7430
  14                   1.62    298.87     42.84    0.7114
  15                   1.62    298.64     47.07    0.6795
  16                  16.20    298.74     64.45    0.6341
  17                  16.20    298.68     51.42    0.3343
  18                  16.20    298.68     86.09    0.6335
  19                   4.05    298.69     64.43    0.0862
  20                  15.39    298.86     55.84    0.0863
  21                  12.96    298.85     64.50    0.7894
  22                   8.10    298.85     42.83    0.7684
  23                   6.48    297.94     29.44    0.6417
  24                   8.91    298.43     46.98    0.6523
  25                   4.86    297.70     29.33    0.6416
  27                   6.48    297.69     72.66    0.0929
  28                   0.00    297.69     81.32    0.8448
  29                   5.67    297.69     81.32    0.7683
  30                   2.43    297.69     72.66    0.9467
  31                  13.77    297.69     46.66    0.1213
  32                  13.77    298.68     81.75    0.7684
  33                   1.22    298.85     51.50    0.8447
  34                   1.22    298.85     47.16    0.9299
  35                   0.00    297.69     81.32    0.3788
  36                   0.81    297.69     81.32    0.9300
  26                 377.40    297.56     27.11    0.7297  Tank
   
   
  Link Results at 54:00:00 hrs:
  ----------------------------------------------
                       Flow  Velocity  Headloss
  Link                  gpm       fps   /1000ft
  ----------------------------------------------
  1                638.8480      1.81      1.80
  2                530.5630      1.51      1.27
  3                101.8050      0.65      0.43
  4                 90.4650      0.58      0.35
  5                 83.9850      0.24      0.04
  6                608.0680      1.72      1.64
  7                604.0180      1.71      1.62
  8                 11.3400      0.03      0.00
  9                589.4380      1.67      1.55
  10                 4.0500      0.03      0.00
  11               578.0980      1.64      1.49
  12               549.9262      1.56      1.36
  13               536.9662      1.52      1.30
  14               446.5122      1.27      0.93
  15               406.0122      1.15      0.78
  16                88.8340      0.57      0.34
  17               -22.4140      0.14      0.03
  18                46.5840      0.30      0.10
  19                 7.9700      0.02      0.00
  20                -8.2300      0.02      0.00
  21                26.0500      0.17      0.03
  22                38.8800      0.11      0.01
  23                11.7893      0.08      0.01
  24                -1.1707      0.01      0.00
  25                11.7007      0.07      0.01
  26               417.8962      1.19      0.82
  27               426.8062      1.21      0.85
  28               411.4162      1.17      0.80
  29               377.3962      1.07      0.68
  30                29.1600      0.08      0.01
  31                15.3900      0.10      0.01
  32                 8.9100      0.06      0.00
  34                 1.3946      0.01      0.00
  35                 2.4300      0.02      0.00
  36                 1.2150      0.01      0.00
  37               -22.0000      0.14      0.03
  38                 1.8454      0.01      0.00
  39                 2.4300      0.02      0.00
  40                 0.5846      0.00      0.00
  41                 0.8100      0.01      0.00
   
   
  Node Results at 55:00:00 hrs:
  --------------------------------------------------------
                     Demand      Head  Pressure  Flouride
  Node                  gpm        ft       psi      mg/l
  --------------------------------------------------------
  1                 -666.62    317.29    115.82    1.0000
  2                   10.08    312.62     92.13    1.0000
  3                   17.64    311.99    109.19    0.9778
  4                   10.08    311.58    109.01    0.9200
  5                   10.08    311.54     91.66    0.9754
  6                    6.30    309.51     79.95    0.9732
  7                    5.04    305.02     62.84    0.8935
  8                   11.34    305.02     84.50    0.0871
  9                   17.64    304.40     53.90    0.8935
  10                   6.30    305.02     75.83    0.8443
  11                  43.82    303.37     51.29    0.8934
  12                  20.16    300.97     39.42    0.8908
  13                   2.52    300.27     39.11    0.8652
  14                   2.52    299.94     43.30    0.8328
  15                   2.52    299.76     47.56    0.7598
  16                  25.20    299.78     64.90    0.7532
  17                  25.20    299.74     51.88    0.6392
  18                  25.20    299.73     86.54    0.6335
  19                   6.30    299.74     64.88    0.2560
  20                  23.94    299.91     56.29    0.3149
  21                  20.16    299.89     64.95    0.7894
  22                  12.60    299.89     43.28    0.7684
  23                  10.08    299.31     30.03    0.7221
  24                  13.86    299.62     47.50    0.7315
  25                   7.56    299.17     29.97    0.7249
  27                  10.08    299.15     73.29    0.1209
  28                   0.00    299.15     81.96    0.8448
  29                   8.82    299.15     81.96    0.7683
  30                   3.78    299.15     73.29    0.3467
  31                  21.42    299.16     47.30    0.3312
  32                  21.42    299.73     82.21    0.0862
  33                   1.89    299.89     51.95    0.8447
  34                   1.89    299.89     47.61    0.9299
  35                   0.00    299.15     81.96    0.3528
  36                   1.26    299.15     81.96    0.9300
  26                 259.92    299.10     27.78    0.7292  Tank
   
   
  Link Results at 55:00:00 hrs:
  ----------------------------------------------
                       Flow  Velocity  Headloss
  Link                  gpm       fps   /1000ft
  ----------------------------------------------
  1                666.6240      1.89      1.94
  2                548.3642      1.56      1.35
  3                108.1798      0.69      0.48
  4                 90.5398      0.58      0.35
  5                 80.4598      0.23      0.04
  6                618.7440      1.76      1.69
  7                612.4440      1.74      1.66
  8                 17.6400      0.05      0.00
  9                589.7640      1.67      1.55
  10                 6.3000      0.04      0.00
  11               572.1240      1.62      1.46
  12               528.3012      1.50      1.26
  13               508.1412      1.44      1.18
  14               418.2690      1.19      0.82
  15               355.2689      1.01      0.61
  16                87.3523      0.56      0.33
  17                15.9677      0.10      0.01
  18                38.7569      0.25      0.07
  19                29.5246      0.08      0.01
  20                 4.3246      0.01      0.00
  21                23.3954      0.15      0.03
  22                60.4800      0.17      0.02
  23                18.3389      0.12      0.02
  24                -1.8211      0.01      0.00
  25                18.2011      0.12      0.02
  26               322.9212      0.92      0.51
  27               336.7812      0.96      0.55
  28               312.8412      0.89      0.48
  29               259.9212      0.74      0.34
  30                45.3600      0.13      0.01
  31                23.9400      0.15      0.03
  32                13.8600      0.09      0.01
  34                 2.1694      0.01      0.00
  35                 3.7800      0.02      0.00
  36                 1.8900      0.01      0.00
  37               -17.0954      0.11      0.02
  38                 2.8706      0.02      0.00
  39                 3.7800      0.02      0.00
  40                 0.9094      0.01      0.00
  41                 1.2600      0.01      0.00
   
  Analysis ended Fri Jul 12 10:52:56 2019
