  Page 1                                    Wed Apr 11 09:36:20 2018

  ******************************************************************
  *                           E P A N E T                          *
  *                   Hydraulic and Water Quality                  *
  *                   Analysis for Pipe Networks                   *
  *                         Version 2.00.12                        *
  ******************************************************************
  
  Analysis begun Wed Apr 11 09:36:20 2018

  Analysis ended Wed Apr 11 09:36:20 2018
