  Page 1                                    Wed Aug 07 13:31:53 2019

  ******************************************************************
  *                           E P A N E T                          *
  *                   Hydraulic and Water Quality                  *
  *                   Analysis for Pipe Networks                   *
  *                         Version 2.2                            *
  ******************************************************************
  
  Analysis begun Wed Aug 07 13:31:53 2019

   
  Node Results at 0:00:00 hrs:
  --------------------------------------------------------
                     Demand      Head  Pressure  Flouride
  Node                  gpm        ft       psi      mg/l
  --------------------------------------------------------
  33                   0.00   1000.00    433.30    1.0000
  34                   1.89   1000.00    433.30    1.0000
  src                 -1.89   1000.00      0.00    0.0000  Reservoir
   
   
  Link Results at 0:00:00 hrs:
  ----------------------------------------------
                       Flow  Velocity  Headloss
  Link                  gpm       fps   /1000ft
  ----------------------------------------------
  L1                 1.8900      0.01      0.00
  P5                 1.8900      0.01      0.00
   
   
  Node Results at 1:00:00 hrs:
  --------------------------------------------------------
                     Demand      Head  Pressure  Flouride
  Node                  gpm        ft       psi      mg/l
  --------------------------------------------------------
  33                   0.00   1000.00    433.30    1.0000
  34                   1.56   1000.00    433.30    1.0000
  src                 -1.56   1000.00      0.00    0.0000  Reservoir
   
   
  Link Results at 1:00:00 hrs:
  ----------------------------------------------
                       Flow  Velocity  Headloss
  Link                  gpm       fps   /1000ft
  ----------------------------------------------
  L1                 1.5600      0.01      0.00
  P5                 1.5600      0.01      0.00
   
   
  Node Results at 2:00:00 hrs:
  --------------------------------------------------------
                     Demand      Head  Pressure  Flouride
  Node                  gpm        ft       psi      mg/l
  --------------------------------------------------------
  33                   0.00   1000.00    433.30    1.0000
  34                   1.45   1000.00    433.30    1.0000
  src                 -1.45   1000.00      0.00    0.0000  Reservoir
   
   
  Link Results at 2:00:00 hrs:
  ----------------------------------------------
                       Flow  Velocity  Headloss
  Link                  gpm       fps   /1000ft
  ----------------------------------------------
  L1                 1.4501      0.01      0.00
  P5                 1.4500      0.01      0.00
   
   
  Node Results at 3:00:00 hrs:
  --------------------------------------------------------
                     Demand      Head  Pressure  Flouride
  Node                  gpm        ft       psi      mg/l
  --------------------------------------------------------
  33                   0.00   1000.00    433.30    1.0000
  34                   1.45   1000.00    433.30    1.0000
  src                 -1.45   1000.00      0.00    0.0000  Reservoir
   
   
  Link Results at 3:00:00 hrs:
  ----------------------------------------------
                       Flow  Velocity  Headloss
  Link                  gpm       fps   /1000ft
  ----------------------------------------------
  L1                 1.4499      0.01      0.00
  P5                 1.4500      0.01      0.00
   
   
  Node Results at 4:00:00 hrs:
  --------------------------------------------------------
                     Demand      Head  Pressure  Flouride
  Node                  gpm        ft       psi      mg/l
  --------------------------------------------------------
  33                   0.00   1000.00    433.30    1.0000
  34                   1.34   1000.00    433.30    1.0000
  src                 -1.34   1000.00      0.00    0.0000  Reservoir
   
   
  Link Results at 4:00:00 hrs:
  ----------------------------------------------
                       Flow  Velocity  Headloss
  Link                  gpm       fps   /1000ft
  ----------------------------------------------
  L1                 1.3401      0.01      0.00
  P5                 1.3400      0.01      0.00
   
   
  Node Results at 5:00:00 hrs:
  --------------------------------------------------------
                     Demand      Head  Pressure  Flouride
  Node                  gpm        ft       psi      mg/l
  --------------------------------------------------------
  33                   0.00   1000.00    433.30    1.0000
  34                   1.78   1000.00    433.30    1.0000
  src                 -1.78   1000.00      0.00    0.0000  Reservoir
   
   
  Link Results at 5:00:00 hrs:
  ----------------------------------------------
                       Flow  Velocity  Headloss
  Link                  gpm       fps   /1000ft
  ----------------------------------------------
  L1                 1.7800      0.01      0.00
  P5                 1.7800      0.01      0.00
   
   
  Node Results at 6:00:00 hrs:
  --------------------------------------------------------
                     Demand      Head  Pressure  Flouride
  Node                  gpm        ft       psi      mg/l
  --------------------------------------------------------
  33                   0.00   1000.00    433.30    1.0000
  34                   1.92   1000.00    433.30    1.0000
  src                 -1.92   1000.00      0.00    0.0000  Reservoir
   
   
  Link Results at 6:00:00 hrs:
  ----------------------------------------------
                       Flow  Velocity  Headloss
  Link                  gpm       fps   /1000ft
  ----------------------------------------------
  L1                 1.9201      0.01      0.00
  P5                 1.9200      0.01      0.00
   
   
  Node Results at 7:00:00 hrs:
  --------------------------------------------------------
                     Demand      Head  Pressure  Flouride
  Node                  gpm        ft       psi      mg/l
  --------------------------------------------------------
  33                   0.00   1000.00    433.30    1.0000
  34                   1.00   1000.00    433.30    1.0000
  src                 -1.00   1000.00      0.00    0.0000  Reservoir
   
   
  Link Results at 7:00:00 hrs:
  ----------------------------------------------
                       Flow  Velocity  Headloss
  Link                  gpm       fps   /1000ft
  ----------------------------------------------
  L1                 1.0000      0.01      0.00
  P5                 1.0000      0.01      0.00
   
   
  Node Results at 8:00:00 hrs:
  --------------------------------------------------------
                     Demand      Head  Pressure  Flouride
  Node                  gpm        ft       psi      mg/l
  --------------------------------------------------------
  33                   0.00   1000.00    433.30    1.0000
  34                   1.00   1000.00    433.30    1.0000
  src                 -1.00   1000.00      0.00    0.0000  Reservoir
   
   
  Link Results at 8:00:00 hrs:
  ----------------------------------------------
                       Flow  Velocity  Headloss
  Link                  gpm       fps   /1000ft
  ----------------------------------------------
  L1                 1.0000      0.01      0.00
  P5                 1.0000      0.01      0.00
   
   
  Node Results at 9:00:00 hrs:
  --------------------------------------------------------
                     Demand      Head  Pressure  Flouride
  Node                  gpm        ft       psi      mg/l
  --------------------------------------------------------
  33                   0.00   1000.00    433.30    1.0000
  34                   2.01   1000.00    433.30    1.0000
  src                 -2.01   1000.00      0.00    0.0000  Reservoir
   
   
  Link Results at 9:00:00 hrs:
  ----------------------------------------------
                       Flow  Velocity  Headloss
  Link                  gpm       fps   /1000ft
  ----------------------------------------------
  L1                 2.0100      0.01      0.00
  P5                 2.0100      0.01      0.00
   
   
  Node Results at 10:00:00 hrs:
  --------------------------------------------------------
                     Demand      Head  Pressure  Flouride
  Node                  gpm        ft       psi      mg/l
  --------------------------------------------------------
  33                   0.00   1000.00    433.30    1.0000
  34                   3.69   1000.00    433.30    1.0000
  src                 -3.69   1000.00      0.00    0.0000  Reservoir
   
   
  Link Results at 10:00:00 hrs:
  ----------------------------------------------
                       Flow  Velocity  Headloss
  Link                  gpm       fps   /1000ft
  ----------------------------------------------
  L1                 3.6899      0.02      0.00
  P5                 3.6900      0.02      0.00
   
   
  Node Results at 11:00:00 hrs:
  --------------------------------------------------------
                     Demand      Head  Pressure  Flouride
  Node                  gpm        ft       psi      mg/l
  --------------------------------------------------------
  33                   0.00   1000.00    433.30    1.0000
  34                   1.45   1000.00    433.30    1.0000
  src                 -1.45   1000.00      0.00    0.0000  Reservoir
   
   
  Link Results at 11:00:00 hrs:
  ----------------------------------------------
                       Flow  Velocity  Headloss
  Link                  gpm       fps   /1000ft
  ----------------------------------------------
  L1                 1.4500      0.01      0.00
  P5                 1.4500      0.01      0.00
   
   
  Node Results at 12:00:00 hrs:
  --------------------------------------------------------
                     Demand      Head  Pressure  Flouride
  Node                  gpm        ft       psi      mg/l
  --------------------------------------------------------
  33                   0.00   1000.00    433.30    1.0000
  34                   1.38   1000.00    433.30    1.0000
  src                 -1.38   1000.00      0.00    0.0000  Reservoir
   
   
  Link Results at 12:00:00 hrs:
  ----------------------------------------------
                       Flow  Velocity  Headloss
  Link                  gpm       fps   /1000ft
  ----------------------------------------------
  L1                 1.3800      0.01      0.00
  P5                 1.3800      0.01      0.00
   
   
  Node Results at 13:00:00 hrs:
  --------------------------------------------------------
                     Demand      Head  Pressure  Flouride
  Node                  gpm        ft       psi      mg/l
  --------------------------------------------------------
  33                   0.00   1000.00    433.30    1.0000
  34                   1.02   1000.00    433.30    1.0000
  src                 -1.02   1000.00      0.00    0.0000  Reservoir
   
   
  Link Results at 13:00:00 hrs:
  ----------------------------------------------
                       Flow  Velocity  Headloss
  Link                  gpm       fps   /1000ft
  ----------------------------------------------
  L1                 1.0200      0.01      0.00
  P5                 1.0200      0.01      0.00
   
   
  Node Results at 14:00:00 hrs:
  --------------------------------------------------------
                     Demand      Head  Pressure  Flouride
  Node                  gpm        ft       psi      mg/l
  --------------------------------------------------------
  33                   0.00   1000.00    433.30    1.0000
  34                   2.14   1000.00    433.30    1.0000
  src                 -2.14   1000.00      0.00    0.0000  Reservoir
   
   
  Link Results at 14:00:00 hrs:
  ----------------------------------------------
                       Flow  Velocity  Headloss
  Link                  gpm       fps   /1000ft
  ----------------------------------------------
  L1                 2.1400      0.01      0.00
  P5                 2.1400      0.01      0.00
   
   
  Node Results at 15:00:00 hrs:
  --------------------------------------------------------
                     Demand      Head  Pressure  Flouride
  Node                  gpm        ft       psi      mg/l
  --------------------------------------------------------
  33                   0.00   1000.00    433.30    1.0000
  34                   0.92   1000.00    433.30    1.0000
  src                 -0.92   1000.00      0.00    0.0000  Reservoir
   
   
  Link Results at 15:00:00 hrs:
  ----------------------------------------------
                       Flow  Velocity  Headloss
  Link                  gpm       fps   /1000ft
  ----------------------------------------------
  L1                 0.9200      0.01      0.00
  P5                 0.9200      0.01      0.00
   
   
  Node Results at 16:00:00 hrs:
  --------------------------------------------------------
                     Demand      Head  Pressure  Flouride
  Node                  gpm        ft       psi      mg/l
  --------------------------------------------------------
  33                   0.00   1000.00    433.30    1.0000
  34                   0.46   1000.00    433.30    1.0000
  src                 -0.46   1000.00      0.00    0.0000  Reservoir
   
   
  Link Results at 16:00:00 hrs:
  ----------------------------------------------
                       Flow  Velocity  Headloss
  Link                  gpm       fps   /1000ft
  ----------------------------------------------
  L1                 0.4599      0.00      0.00
  P5                 0.4600      0.00      0.00
   
   
  Node Results at 17:00:00 hrs:
  --------------------------------------------------------
                     Demand      Head  Pressure  Flouride
  Node                  gpm        ft       psi      mg/l
  --------------------------------------------------------
  33                   0.00   1000.00    433.30    1.0000
  34                   1.17   1000.00    433.30    1.0000
  src                 -1.17   1000.00      0.00    0.0000  Reservoir
   
   
  Link Results at 17:00:00 hrs:
  ----------------------------------------------
                       Flow  Velocity  Headloss
  Link                  gpm       fps   /1000ft
  ----------------------------------------------
  L1                 1.1702      0.01      0.00
  P5                 1.1700      0.01      0.00
   
   
  Node Results at 18:00:00 hrs:
  --------------------------------------------------------
                     Demand      Head  Pressure  Flouride
  Node                  gpm        ft       psi      mg/l
  --------------------------------------------------------
  33                   0.00   1000.00    433.30    1.0000
  34                   0.56   1000.00    433.30    1.0000
  src                 -0.56   1000.00      0.00    0.0000  Reservoir
   
   
  Link Results at 18:00:00 hrs:
  ----------------------------------------------
                       Flow  Velocity  Headloss
  Link                  gpm       fps   /1000ft
  ----------------------------------------------
  L1                 0.5601      0.00      0.00
  P5                 0.5600      0.00      0.00
   
   
  Node Results at 19:00:00 hrs:
  --------------------------------------------------------
                     Demand      Head  Pressure  Flouride
  Node                  gpm        ft       psi      mg/l
  --------------------------------------------------------
  33                   0.00   1000.00    433.30    1.0000
  34                   1.00   1000.00    433.30    1.0000
  src                 -1.00   1000.00      0.00    0.0000  Reservoir
   
   
  Link Results at 19:00:00 hrs:
  ----------------------------------------------
                       Flow  Velocity  Headloss
  Link                  gpm       fps   /1000ft
  ----------------------------------------------
  L1                 1.0001      0.01      0.00
  P5                 1.0000      0.01      0.00
   
   
  Node Results at 20:00:00 hrs:
  --------------------------------------------------------
                     Demand      Head  Pressure  Flouride
  Node                  gpm        ft       psi      mg/l
  --------------------------------------------------------
  33                   0.00   1000.00    433.30    1.0000
  34                   1.89   1000.00    433.30    1.0000
  src                 -1.89   1000.00      0.00    0.0000  Reservoir
   
   
  Link Results at 20:00:00 hrs:
  ----------------------------------------------
                       Flow  Velocity  Headloss
  Link                  gpm       fps   /1000ft
  ----------------------------------------------
  L1                 1.8900      0.01      0.00
  P5                 1.8900      0.01      0.00
   
   
  Node Results at 21:00:00 hrs:
  --------------------------------------------------------
                     Demand      Head  Pressure  Flouride
  Node                  gpm        ft       psi      mg/l
  --------------------------------------------------------
  33                   0.00   1000.00    433.30    1.0000
  34                   2.34   1000.00    433.30    1.0000
  src                 -2.34   1000.00      0.00    0.0000  Reservoir
   
   
  Link Results at 21:00:00 hrs:
  ----------------------------------------------
                       Flow  Velocity  Headloss
  Link                  gpm       fps   /1000ft
  ----------------------------------------------
  L1                 2.3400      0.01      0.00
  P5                 2.3400      0.01      0.00
   
   
  Node Results at 22:00:00 hrs:
  --------------------------------------------------------
                     Demand      Head  Pressure  Flouride
  Node                  gpm        ft       psi      mg/l
  --------------------------------------------------------
  33                   0.00   1000.00    433.30    1.0000
  34                   1.78   1000.00    433.30    1.0000
  src                 -1.78   1000.00      0.00    0.0000  Reservoir
   
   
  Link Results at 22:00:00 hrs:
  ----------------------------------------------
                       Flow  Velocity  Headloss
  Link                  gpm       fps   /1000ft
  ----------------------------------------------
  L1                 1.7800      0.01      0.00
  P5                 1.7800      0.01      0.00
   
   
  Node Results at 23:00:00 hrs:
  --------------------------------------------------------
                     Demand      Head  Pressure  Flouride
  Node                  gpm        ft       psi      mg/l
  --------------------------------------------------------
  33                   0.00   1000.00    433.30    1.0000
  34                   1.89   1000.00    433.30    1.0000
  src                 -1.89   1000.00      0.00    0.0000  Reservoir
   
   
  Link Results at 23:00:00 hrs:
  ----------------------------------------------
                       Flow  Velocity  Headloss
  Link                  gpm       fps   /1000ft
  ----------------------------------------------
  L1                 1.8900      0.01      0.00
  P5                 1.8900      0.01      0.00
   
   
  Node Results at 24:00:00 hrs:
  --------------------------------------------------------
                     Demand      Head  Pressure  Flouride
  Node                  gpm        ft       psi      mg/l
  --------------------------------------------------------
  33                   0.00   1000.00    433.30    0.9860
  34                   0.90   1000.00    433.30    1.0000
  src                 -0.90   1000.00      0.00    0.0000  Reservoir
   
   
  Link Results at 24:00:00 hrs:
  ----------------------------------------------
                       Flow  Velocity  Headloss
  Link                  gpm       fps   /1000ft
  ----------------------------------------------
  L1                 0.9001      0.01      0.00
  P5                 0.9000      0.01      0.00
   
   
  Node Results at 25:00:00 hrs:
  --------------------------------------------------------
                     Demand      Head  Pressure  Flouride
  Node                  gpm        ft       psi      mg/l
  --------------------------------------------------------
  33                   0.00   1000.00    433.30    1.0310
  34                   1.65   1000.00    433.30    1.0000
  src                 -1.65   1000.00      0.00    0.0000  Reservoir
   
   
  Link Results at 25:00:00 hrs:
  ----------------------------------------------
                       Flow  Velocity  Headloss
  Link                  gpm       fps   /1000ft
  ----------------------------------------------
  L1                 1.6500      0.01      0.00
  P5                 1.6500      0.01      0.00
   
   
  Node Results at 26:00:00 hrs:
  --------------------------------------------------------
                     Demand      Head  Pressure  Flouride
  Node                  gpm        ft       psi      mg/l
  --------------------------------------------------------
  33                   0.00   1000.00    433.30    1.0370
  34                   1.54   1000.00    433.30    1.0000
  src                 -1.54   1000.00      0.00    0.0000  Reservoir
   
   
  Link Results at 26:00:00 hrs:
  ----------------------------------------------
                       Flow  Velocity  Headloss
  Link                  gpm       fps   /1000ft
  ----------------------------------------------
  L1                 1.5400      0.01      0.00
  P5                 1.5400      0.01      0.00
   
   
  Node Results at 27:00:00 hrs:
  --------------------------------------------------------
                     Demand      Head  Pressure  Flouride
  Node                  gpm        ft       psi      mg/l
  --------------------------------------------------------
  33                   0.00   1000.00    433.30    0.9960
  34                   1.09   1000.00    433.30    1.0000
  src                 -1.09   1000.00      0.00    0.0000  Reservoir
   
   
  Link Results at 27:00:00 hrs:
  ----------------------------------------------
                       Flow  Velocity  Headloss
  Link                  gpm       fps   /1000ft
  ----------------------------------------------
  L1                 1.0900      0.01      0.00
  P5                 1.0900      0.01      0.00
   
   
  Node Results at 28:00:00 hrs:
  --------------------------------------------------------
                     Demand      Head  Pressure  Flouride
  Node                  gpm        ft       psi      mg/l
  --------------------------------------------------------
  33                   0.00   1000.00    433.30    0.6960
  34                   1.32   1000.00    433.30    1.0000
  src                 -1.32   1000.00      0.00    0.0000  Reservoir
   
   
  Link Results at 28:00:00 hrs:
  ----------------------------------------------
                       Flow  Velocity  Headloss
  Link                  gpm       fps   /1000ft
  ----------------------------------------------
  L1                 1.3199      0.01      0.00
  P5                 1.3200      0.01      0.00
   
   
  Node Results at 29:00:00 hrs:
  --------------------------------------------------------
                     Demand      Head  Pressure  Flouride
  Node                  gpm        ft       psi      mg/l
  --------------------------------------------------------
  33                   0.00   1000.00    433.30    0.6960
  34                   1.59   1000.00    433.30    1.0000
  src                 -1.59   1000.00      0.00    0.0000  Reservoir
   
   
  Link Results at 29:00:00 hrs:
  ----------------------------------------------
                       Flow  Velocity  Headloss
  Link                  gpm       fps   /1000ft
  ----------------------------------------------
  L1                 1.5900      0.01      0.00
  P5                 1.5900      0.01      0.00
   
   
  Node Results at 30:00:00 hrs:
  --------------------------------------------------------
                     Demand      Head  Pressure  Flouride
  Node                  gpm        ft       psi      mg/l
  --------------------------------------------------------
  33                   0.00   1000.00    433.30    1.0010
  34                   1.49   1000.00    433.30    1.0000
  src                 -1.49   1000.00      0.00    0.0000  Reservoir
   
   
  Link Results at 30:00:00 hrs:
  ----------------------------------------------
                       Flow  Velocity  Headloss
  Link                  gpm       fps   /1000ft
  ----------------------------------------------
  L1                 1.4901      0.01      0.00
  P5                 1.4900      0.01      0.00
   
   
  Node Results at 31:00:00 hrs:
  --------------------------------------------------------
                     Demand      Head  Pressure  Flouride
  Node                  gpm        ft       psi      mg/l
  --------------------------------------------------------
  33                   0.00   1000.00    433.30    1.0010
  34                   2.58   1000.00    433.30    1.0000
  src                 -2.58   1000.00      0.00    0.0000  Reservoir
   
   
  Link Results at 31:00:00 hrs:
  ----------------------------------------------
                       Flow  Velocity  Headloss
  Link                  gpm       fps   /1000ft
  ----------------------------------------------
  L1                 2.5801      0.02      0.00
  P5                 2.5800      0.02      0.00
   
   
  Node Results at 32:00:00 hrs:
  --------------------------------------------------------
                     Demand      Head  Pressure  Flouride
  Node                  gpm        ft       psi      mg/l
  --------------------------------------------------------
  33                   0.00   1000.00    433.30    1.0010
  34                   1.68   1000.00    433.30    1.0000
  src                 -1.68   1000.00      0.00    0.0000  Reservoir
   
   
  Link Results at 32:00:00 hrs:
  ----------------------------------------------
                       Flow  Velocity  Headloss
  Link                  gpm       fps   /1000ft
  ----------------------------------------------
  L1                 1.6800      0.01      0.00
  P5                 1.6800      0.01      0.00
   
   
  Node Results at 33:00:00 hrs:
  --------------------------------------------------------
                     Demand      Head  Pressure  Flouride
  Node                  gpm        ft       psi      mg/l
  --------------------------------------------------------
  33                   0.00   1000.00    433.30    1.0010
  34                   2.01   1000.00    433.30    1.0000
  src                 -2.01   1000.00      0.00    0.0000  Reservoir
   
   
  Link Results at 33:00:00 hrs:
  ----------------------------------------------
                       Flow  Velocity  Headloss
  Link                  gpm       fps   /1000ft
  ----------------------------------------------
  L1                 2.0100      0.01      0.00
  P5                 2.0100      0.01      0.00
   
   
  Node Results at 34:00:00 hrs:
  --------------------------------------------------------
                     Demand      Head  Pressure  Flouride
  Node                  gpm        ft       psi      mg/l
  --------------------------------------------------------
  33                   0.00   1000.00    433.30    1.0010
  34                   1.68   1000.00    433.30    0.9860
  src                 -1.68   1000.00      0.00    0.0000  Reservoir
   
   
  Link Results at 34:00:00 hrs:
  ----------------------------------------------
                       Flow  Velocity  Headloss
  Link                  gpm       fps   /1000ft
  ----------------------------------------------
  L1                 1.6800      0.01      0.00
  P5                 1.6800      0.01      0.00
   
   
  Node Results at 35:00:00 hrs:
  --------------------------------------------------------
                     Demand      Head  Pressure  Flouride
  Node                  gpm        ft       psi      mg/l
  --------------------------------------------------------
  33                   0.00   1000.00    433.30    0.8610
  34                   1.45   1000.00    433.30    1.0349
  src                 -1.45   1000.00      0.00    0.0000  Reservoir
   
   
  Link Results at 35:00:00 hrs:
  ----------------------------------------------
                       Flow  Velocity  Headloss
  Link                  gpm       fps   /1000ft
  ----------------------------------------------
  L1                 1.4501      0.01      0.00
  P5                 1.4500      0.01      0.00
   
   
  Node Results at 36:00:00 hrs:
  --------------------------------------------------------
                     Demand      Head  Pressure  Flouride
  Node                  gpm        ft       psi      mg/l
  --------------------------------------------------------
  33                   0.00   1000.00    433.30    0.2130
  34                   1.56   1000.00    433.30    1.0349
  src                 -1.56   1000.00      0.00    0.0000  Reservoir
   
   
  Link Results at 36:00:00 hrs:
  ----------------------------------------------
                       Flow  Velocity  Headloss
  Link                  gpm       fps   /1000ft
  ----------------------------------------------
  L1                 1.5600      0.01      0.00
  P5                 1.5600      0.01      0.00
   
   
  Node Results at 37:00:00 hrs:
  --------------------------------------------------------
                     Demand      Head  Pressure  Flouride
  Node                  gpm        ft       psi      mg/l
  --------------------------------------------------------
  33                   0.00   1000.00    433.30    0.2340
  34                   1.73   1000.00    433.30    0.9960
  src                 -1.73   1000.00      0.00    0.0000  Reservoir
   
   
  Link Results at 37:00:00 hrs:
  ----------------------------------------------
                       Flow  Velocity  Headloss
  Link                  gpm       fps   /1000ft
  ----------------------------------------------
  L1                 1.7299      0.01      0.00
  P5                 1.7300      0.01      0.00
   
   
  Node Results at 38:00:00 hrs:
  --------------------------------------------------------
                     Demand      Head  Pressure  Flouride
  Node                  gpm        ft       psi      mg/l
  --------------------------------------------------------
  33                   0.00   1000.00    433.30    0.1390
  34                   1.37   1000.00    433.30    0.6960
  src                 -1.37   1000.00      0.00    0.0000  Reservoir
   
   
  Link Results at 38:00:00 hrs:
  ----------------------------------------------
                       Flow  Velocity  Headloss
  Link                  gpm       fps   /1000ft
  ----------------------------------------------
  L1                 1.3700      0.01      0.00
  P5                 1.3700      0.01      0.00
   
   
  Node Results at 39:00:00 hrs:
  --------------------------------------------------------
                     Demand      Head  Pressure  Flouride
  Node                  gpm        ft       psi      mg/l
  --------------------------------------------------------
  33                   0.00   1000.00    433.30    0.9300
  34                   0.92   1000.00    433.30    0.6960
  src                 -0.92   1000.00      0.00    0.0000  Reservoir
   
   
  Link Results at 39:00:00 hrs:
  ----------------------------------------------
                       Flow  Velocity  Headloss
  Link                  gpm       fps   /1000ft
  ----------------------------------------------
  L1                 0.9199      0.01      0.00
  P5                 0.9200      0.01      0.00
   
   
  Node Results at 40:00:00 hrs:
  --------------------------------------------------------
                     Demand      Head  Pressure  Flouride
  Node                  gpm        ft       psi      mg/l
  --------------------------------------------------------
  33                   0.00   1000.00    433.30    0.9300
  34                   1.02   1000.00    433.30    1.0010
  src                 -1.02   1000.00      0.00    0.0000  Reservoir
   
   
  Link Results at 40:00:00 hrs:
  ----------------------------------------------
                       Flow  Velocity  Headloss
  Link                  gpm       fps   /1000ft
  ----------------------------------------------
  L1                 1.0201      0.01      0.00
  P5                 1.0200      0.01      0.00
   
   
  Node Results at 41:00:00 hrs:
  --------------------------------------------------------
                     Demand      Head  Pressure  Flouride
  Node                  gpm        ft       psi      mg/l
  --------------------------------------------------------
  33                   0.00   1000.00    433.30    0.9300
  34                   0.69   1000.00    433.30    1.0010
  src                 -0.69   1000.00      0.00    0.0000  Reservoir
   
   
  Link Results at 41:00:00 hrs:
  ----------------------------------------------
                       Flow  Velocity  Headloss
  Link                  gpm       fps   /1000ft
  ----------------------------------------------
  L1                 0.6900      0.00      0.00
  P5                 0.6900      0.00      0.00
   
   
  Node Results at 42:00:00 hrs:
  --------------------------------------------------------
                     Demand      Head  Pressure  Flouride
  Node                  gpm        ft       psi      mg/l
  --------------------------------------------------------
  33                   0.00   1000.00    433.30    0.9300
  34                   0.77   1000.00    433.30    1.0010
  src                 -0.77   1000.00      0.00    0.0000  Reservoir
   
   
  Link Results at 42:00:00 hrs:
  ----------------------------------------------
                       Flow  Velocity  Headloss
  Link                  gpm       fps   /1000ft
  ----------------------------------------------
  L1                 0.7700      0.00      0.00
  P5                 0.7700      0.00      0.00
   
   
  Node Results at 43:00:00 hrs:
  --------------------------------------------------------
                     Demand      Head  Pressure  Flouride
  Node                  gpm        ft       psi      mg/l
  --------------------------------------------------------
  33                   0.00   1000.00    433.30    0.9300
  34                   1.11   1000.00    433.30    1.0010
  src                 -1.11   1000.00      0.00    0.0000  Reservoir
   
   
  Link Results at 43:00:00 hrs:
  ----------------------------------------------
                       Flow  Velocity  Headloss
  Link                  gpm       fps   /1000ft
  ----------------------------------------------
  L1                 1.1099      0.01      0.00
  P5                 1.1100      0.01      0.00
   
   
  Node Results at 44:00:00 hrs:
  --------------------------------------------------------
                     Demand      Head  Pressure  Flouride
  Node                  gpm        ft       psi      mg/l
  --------------------------------------------------------
  33                   0.00   1000.00    433.30    0.9300
  34                   1.68   1000.00    433.30    1.0010
  src                 -1.68   1000.00      0.00    0.0000  Reservoir
   
   
  Link Results at 44:00:00 hrs:
  ----------------------------------------------
                       Flow  Velocity  Headloss
  Link                  gpm       fps   /1000ft
  ----------------------------------------------
  L1                 1.6800      0.01      0.00
  P5                 1.6800      0.01      0.00
   
   
  Node Results at 45:00:00 hrs:
  --------------------------------------------------------
                     Demand      Head  Pressure  Flouride
  Node                  gpm        ft       psi      mg/l
  --------------------------------------------------------
  33                   0.00   1000.00    433.30    0.9300
  34                   2.01   1000.00    433.30    1.0010
  src                 -2.01   1000.00      0.00    0.0000  Reservoir
   
   
  Link Results at 45:00:00 hrs:
  ----------------------------------------------
                       Flow  Velocity  Headloss
  Link                  gpm       fps   /1000ft
  ----------------------------------------------
  L1                 2.0100      0.01      0.00
  P5                 2.0100      0.01      0.00
   
   
  Node Results at 46:00:00 hrs:
  --------------------------------------------------------
                     Demand      Head  Pressure  Flouride
  Node                  gpm        ft       psi      mg/l
  --------------------------------------------------------
  33                   0.00   1000.00    433.30    0.9300
  34                   1.89   1000.00    433.30    1.0010
  src                 -1.89   1000.00      0.00    0.0000  Reservoir
   
   
  Link Results at 46:00:00 hrs:
  ----------------------------------------------
                       Flow  Velocity  Headloss
  Link                  gpm       fps   /1000ft
  ----------------------------------------------
  L1                 1.8901      0.01      0.00
  P5                 1.8900      0.01      0.00
   
   
  Node Results at 47:00:00 hrs:
  --------------------------------------------------------
                     Demand      Head  Pressure  Flouride
  Node                  gpm        ft       psi      mg/l
  --------------------------------------------------------
  33                   0.00   1000.00    433.30    0.9300
  34                   1.45   1000.00    433.30    0.8610
  src                 -1.45   1000.00      0.00    0.0000  Reservoir
   
   
  Link Results at 47:00:00 hrs:
  ----------------------------------------------
                       Flow  Velocity  Headloss
  Link                  gpm       fps   /1000ft
  ----------------------------------------------
  L1                 1.4499      0.01      0.00
  P5                 1.4500      0.01      0.00
   
   
  Node Results at 48:00:00 hrs:
  --------------------------------------------------------
                     Demand      Head  Pressure  Flouride
  Node                  gpm        ft       psi      mg/l
  --------------------------------------------------------
  33                   0.00   1000.00    433.30    0.1390
  34                   1.23   1000.00    433.30    0.2130
  src                 -1.23   1000.00      0.00    0.0000  Reservoir
   
   
  Link Results at 48:00:00 hrs:
  ----------------------------------------------
                       Flow  Velocity  Headloss
  Link                  gpm       fps   /1000ft
  ----------------------------------------------
  L1                 1.2300      0.01      0.00
  P5                 1.2300      0.01      0.00
   
   
  Node Results at 49:00:00 hrs:
  --------------------------------------------------------
                     Demand      Head  Pressure  Flouride
  Node                  gpm        ft       psi      mg/l
  --------------------------------------------------------
  33                   0.00   1000.00    433.30    0.1240
  34                   2.05   1000.00    433.30    0.2340
  src                 -2.05   1000.00      0.00    0.0000  Reservoir
   
   
  Link Results at 49:00:00 hrs:
  ----------------------------------------------
                       Flow  Velocity  Headloss
  Link                  gpm       fps   /1000ft
  ----------------------------------------------
  L1                 2.0500      0.01      0.00
  P5                 2.0500      0.01      0.00
   
   
  Node Results at 50:00:00 hrs:
  --------------------------------------------------------
                     Demand      Head  Pressure  Flouride
  Node                  gpm        ft       psi      mg/l
  --------------------------------------------------------
  33                   0.00   1000.00    433.30    0.1060
  34                   1.54   1000.00    433.30    0.1390
  src                 -1.54   1000.00      0.00    0.0000  Reservoir
   
   
  Link Results at 50:00:00 hrs:
  ----------------------------------------------
                       Flow  Velocity  Headloss
  Link                  gpm       fps   /1000ft
  ----------------------------------------------
  L1                 1.5400      0.01      0.00
  P5                 1.5400      0.01      0.00
   
   
  Node Results at 51:00:00 hrs:
  --------------------------------------------------------
                     Demand      Head  Pressure  Flouride
  Node                  gpm        ft       psi      mg/l
  --------------------------------------------------------
  33                   0.00   1000.00    433.30    0.0900
  34                   1.22   1000.00    433.30    0.9300
  src                 -1.22   1000.00      0.00    0.0000  Reservoir
   
   
  Link Results at 51:00:00 hrs:
  ----------------------------------------------
                       Flow  Velocity  Headloss
  Link                  gpm       fps   /1000ft
  ----------------------------------------------
  L1                 1.2199      0.01      0.00
  P5                 1.2200      0.01      0.00
   
   
  Node Results at 52:00:00 hrs:
  --------------------------------------------------------
                     Demand      Head  Pressure  Flouride
  Node                  gpm        ft       psi      mg/l
  --------------------------------------------------------
  33                   0.00   1000.00    433.30    0.1030
  34                   1.32   1000.00    433.30    0.9300
  src                 -1.32   1000.00      0.00    0.0000  Reservoir
   
   
  Link Results at 52:00:00 hrs:
  ----------------------------------------------
                       Flow  Velocity  Headloss
  Link                  gpm       fps   /1000ft
  ----------------------------------------------
  L1                 1.3200      0.01      0.00
  P5                 1.3200      0.01      0.00
   
   
  Node Results at 53:00:00 hrs:
  --------------------------------------------------------
                     Demand      Head  Pressure  Flouride
  Node                  gpm        ft       psi      mg/l
  --------------------------------------------------------
  33                   0.00   1000.00    433.30    0.1030
  34                   1.22   1000.00    433.30    0.9300
  src                 -1.22   1000.00      0.00    0.0000  Reservoir
   
   
  Link Results at 53:00:00 hrs:
  ----------------------------------------------
                       Flow  Velocity  Headloss
  Link                  gpm       fps   /1000ft
  ----------------------------------------------
  L1                 1.2201      0.01      0.00
  P5                 1.2200      0.01      0.00
   
   
  Node Results at 54:00:00 hrs:
  --------------------------------------------------------
                     Demand      Head  Pressure  Flouride
  Node                  gpm        ft       psi      mg/l
  --------------------------------------------------------
  33                   0.00   1000.00    433.30    0.1030
  34                   1.22   1000.00    433.30    0.9300
  src                 -1.22   1000.00      0.00    0.0000  Reservoir
   
   
  Link Results at 54:00:00 hrs:
  ----------------------------------------------
                       Flow  Velocity  Headloss
  Link                  gpm       fps   /1000ft
  ----------------------------------------------
  L1                 1.2199      0.01      0.00
  P5                 1.2200      0.01      0.00
   
   
  Node Results at 55:00:00 hrs:
  --------------------------------------------------------
                     Demand      Head  Pressure  Flouride
  Node                  gpm        ft       psi      mg/l
  --------------------------------------------------------
  33                   0.00   1000.00    433.30    0.8450
  34                   1.89   1000.00    433.30    0.9300
  src                 -1.89   1000.00      0.00    0.0000  Reservoir
   
   
  Link Results at 55:00:00 hrs:
  ----------------------------------------------
                       Flow  Velocity  Headloss
  Link                  gpm       fps   /1000ft
  ----------------------------------------------
  L1                 1.8900      0.01      0.00
  P5                 1.8900      0.01      0.00
   