  Page 1                                    Mon Sep 02 15:24:21 2019

  ******************************************************************
  *                           E P A N E T                          *
  *                   Hydraulic and Water Quality                  *
  *                   Analysis for Pipe Networks                   *
  *                         Version 2.2                            *
  ******************************************************************
  
  Analysis begun Mon Sep 02 15:24:21 2019

   
  Node Results at 0:00:00 hrs:
  --------------------------------------------------------
                     Demand      Head  Pressure  Chlorine
  Node                  gpm        ft       psi      mg/l
  --------------------------------------------------------
  8                    0.00   1000.00    433.30    0.2000
  10                   6.30   1000.00    433.30    0.2000
  src                 -6.30   1000.00      0.00    0.0000  Reservoir
   
   
  Link Results at 0:00:00 hrs:
  ----------------------------------------------
                       Flow  Velocity  Headloss
  Link                  gpm       fps   /1000ft
  ----------------------------------------------
  L1                 6.3000      0.04      0.00
  P1                 6.3000      0.04      0.00
   
   
  Node Results at 1:00:00 hrs:
  --------------------------------------------------------
                     Demand      Head  Pressure  Chlorine
  Node                  gpm        ft       psi      mg/l
  --------------------------------------------------------
  8                    0.00   1000.00    433.30    0.2000
  10                   5.20   1000.00    433.30    0.1917
  src                 -5.20   1000.00      0.00    0.0000  Reservoir
   
   
  Link Results at 1:00:00 hrs:
  ----------------------------------------------
                       Flow  Velocity  Headloss
  Link                  gpm       fps   /1000ft
  ----------------------------------------------
  L1                 5.2000      0.03      0.00
  P1                 5.2000      0.03      0.00
   
   
  Node Results at 2:00:00 hrs:
  --------------------------------------------------------
                     Demand      Head  Pressure  Chlorine
  Node                  gpm        ft       psi      mg/l
  --------------------------------------------------------
  8                    0.00   1000.00    433.30    0.1924
  10                   4.85   1000.00    433.30    0.1866
  src                 -4.85   1000.00      0.00    0.0000  Reservoir
   
   
  Link Results at 2:00:00 hrs:
  ----------------------------------------------
                       Flow  Velocity  Headloss
  Link                  gpm       fps   /1000ft
  ----------------------------------------------
  L1                 4.8500      0.03      0.00
  P1                 4.8500      0.03      0.00
   
   
  Node Results at 3:00:00 hrs:
  --------------------------------------------------------
                     Demand      Head  Pressure  Chlorine
  Node                  gpm        ft       psi      mg/l
  --------------------------------------------------------
  8                    0.00   1000.00    433.30    0.1852
  10                   4.85   1000.00    433.30    0.1814
  src                 -4.85   1000.00      0.00    0.0000  Reservoir
   
   
  Link Results at 3:00:00 hrs:
  ----------------------------------------------
                       Flow  Velocity  Headloss
  Link                  gpm       fps   /1000ft
  ----------------------------------------------
  L1                 4.8501      0.03      0.00
  P1                 4.8500      0.03      0.00
   
   
  Node Results at 4:00:00 hrs:
  --------------------------------------------------------
                     Demand      Head  Pressure  Chlorine
  Node                  gpm        ft       psi      mg/l
  --------------------------------------------------------
  8                    0.00   1000.00    433.30    0.1784
  10                   4.45   1000.00    433.30    0.1762
  src                 -4.45   1000.00      0.00    0.0000  Reservoir
   
   
  Link Results at 4:00:00 hrs:
  ----------------------------------------------
                       Flow  Velocity  Headloss
  Link                  gpm       fps   /1000ft
  ----------------------------------------------
  L1                 4.4500      0.03      0.00
  P1                 4.4500      0.03      0.00
   
   
  Node Results at 5:00:00 hrs:
  --------------------------------------------------------
                     Demand      Head  Pressure  Chlorine
  Node                  gpm        ft       psi      mg/l
  --------------------------------------------------------
  8                    0.00   1000.00    433.30    0.1719
  10                   5.95   1000.00    433.30    0.1710
  src                 -5.95   1000.00      0.00    0.0000  Reservoir
   
   
  Link Results at 5:00:00 hrs:
  ----------------------------------------------
                       Flow  Velocity  Headloss
  Link                  gpm       fps   /1000ft
  ----------------------------------------------
  L1                 5.9500      0.04      0.00
  P1                 5.9500      0.04      0.00
   
   
  Node Results at 6:00:00 hrs:
  --------------------------------------------------------
                     Demand      Head  Pressure  Chlorine
  Node                  gpm        ft       psi      mg/l
  --------------------------------------------------------
  8                    0.00   1000.00    433.30    0.1656
  10                   6.40   1000.00    433.30    0.1633
  src                 -6.40   1000.00      0.00    0.0000  Reservoir
   
   
  Link Results at 6:00:00 hrs:
  ----------------------------------------------
                       Flow  Velocity  Headloss
  Link                  gpm       fps   /1000ft
  ----------------------------------------------
  L1                 6.3999      0.04      0.00
  P1                 6.4000      0.04      0.00
   
   
  Node Results at 7:00:00 hrs:
  --------------------------------------------------------
                     Demand      Head  Pressure  Chlorine
  Node                  gpm        ft       psi      mg/l
  --------------------------------------------------------
  8                    0.00   1000.00    433.30    0.1594
  10                   3.35   1000.00    433.30    0.1560
  src                 -3.35   1000.00      0.00    0.0000  Reservoir
   
   
  Link Results at 7:00:00 hrs:
  ----------------------------------------------
                       Flow  Velocity  Headloss
  Link                  gpm       fps   /1000ft
  ----------------------------------------------
  L1                 3.3501      0.02      0.00
  P1                 3.3500      0.02      0.00
   
   
  Node Results at 8:00:00 hrs:
  --------------------------------------------------------
                     Demand      Head  Pressure  Chlorine
  Node                  gpm        ft       psi      mg/l
  --------------------------------------------------------
  8                    0.00   1000.00    433.30    0.1533
  10                   3.35   1000.00    433.30    0.1516
  src                 -3.35   1000.00      0.00    0.0000  Reservoir
   
   
  Link Results at 8:00:00 hrs:
  ----------------------------------------------
                       Flow  Velocity  Headloss
  Link                  gpm       fps   /1000ft
  ----------------------------------------------
  L1                 3.3500      0.02      0.00
  P1                 3.3500      0.02      0.00
   
   
  Node Results at 9:00:00 hrs:
  --------------------------------------------------------
                     Demand      Head  Pressure  Chlorine
  Node                  gpm        ft       psi      mg/l
  --------------------------------------------------------
  8                    0.00   1000.00    433.30    0.1479
  10                   6.70   1000.00    433.30    0.1473
  src                 -6.70   1000.00      0.00    0.0000  Reservoir
   
   
  Link Results at 9:00:00 hrs:
  ----------------------------------------------
                       Flow  Velocity  Headloss
  Link                  gpm       fps   /1000ft
  ----------------------------------------------
  L1                 6.6999      0.04      0.00
  P1                 6.7000      0.04      0.00
   
   
  Node Results at 10:00:00 hrs:
  --------------------------------------------------------
                     Demand      Head  Pressure  Chlorine
  Node                  gpm        ft       psi      mg/l
  --------------------------------------------------------
  8                    0.00   1000.00    433.30    0.2147
  10                  12.30   1000.00    433.30    0.1406
  src                -12.30   1000.00      0.00    0.0000  Reservoir
   
   
  Link Results at 10:00:00 hrs:
  ----------------------------------------------
                       Flow  Velocity  Headloss
  Link                  gpm       fps   /1000ft
  ----------------------------------------------
  L1                12.3000      0.08      0.00
  P1                12.3000      0.08      0.00
   
   
  Node Results at 11:00:00 hrs:
  --------------------------------------------------------
                     Demand      Head  Pressure  Chlorine
  Node                  gpm        ft       psi      mg/l
  --------------------------------------------------------
  8                    0.00   1000.00    433.30    0.6096
  10                   4.85   1000.00    433.30    0.1337
  src                 -4.85   1000.00      0.00    0.0000  Reservoir
   
   
  Link Results at 11:00:00 hrs:
  ----------------------------------------------
                       Flow  Velocity  Headloss
  Link                  gpm       fps   /1000ft
  ----------------------------------------------
  L1                 4.8500      0.03      0.00
  P1                 4.8500      0.03      0.00
   
   
  Node Results at 12:00:00 hrs:
  --------------------------------------------------------
                     Demand      Head  Pressure  Chlorine
  Node                  gpm        ft       psi      mg/l
  --------------------------------------------------------
  8                    0.00   1000.00    433.30    0.6517
  10                   4.60   1000.00    433.30    0.1299
  src                 -4.60   1000.00      0.00    0.0000  Reservoir
   
   
  Link Results at 12:00:00 hrs:
  ----------------------------------------------
                       Flow  Velocity  Headloss
  Link                  gpm       fps   /1000ft
  ----------------------------------------------
  L1                 4.6000      0.03      0.00
  P1                 4.6000      0.03      0.00
   
   
  Node Results at 13:00:00 hrs:
  --------------------------------------------------------
                     Demand      Head  Pressure  Chlorine
  Node                  gpm        ft       psi      mg/l
  --------------------------------------------------------
  8                    0.00   1000.00    433.30    0.6507
  10                   3.40   1000.00    433.30    0.1262
  src                 -3.40   1000.00      0.00    0.0000  Reservoir
   
   
  Link Results at 13:00:00 hrs:
  ----------------------------------------------
                       Flow  Velocity  Headloss
  Link                  gpm       fps   /1000ft
  ----------------------------------------------
  L1                 3.4001      0.02      0.00
  P1                 3.4000      0.02      0.00
   
   
  Node Results at 14:00:00 hrs:
  --------------------------------------------------------
                     Demand      Head  Pressure  Chlorine
  Node                  gpm        ft       psi      mg/l
  --------------------------------------------------------
  8                    0.00   1000.00    433.30    0.6391
  10                   7.15   1000.00    433.30    0.1227
  src                 -7.15   1000.00      0.00    0.0000  Reservoir
   
   
  Link Results at 14:00:00 hrs:
  ----------------------------------------------
                       Flow  Velocity  Headloss
  Link                  gpm       fps   /1000ft
  ----------------------------------------------
  L1                 7.1500      0.05      0.00
  P1                 7.1500      0.05      0.00
   
   
  Node Results at 15:00:00 hrs:
  --------------------------------------------------------
                     Demand      Head  Pressure  Chlorine
  Node                  gpm        ft       psi      mg/l
  --------------------------------------------------------
  8                    0.00   1000.00    433.30    0.6278
  10                   3.05   1000.00    433.30    0.1171
  src                 -3.05   1000.00      0.00    0.0000  Reservoir
   
   
  Link Results at 15:00:00 hrs:
  ----------------------------------------------
                       Flow  Velocity  Headloss
  Link                  gpm       fps   /1000ft
  ----------------------------------------------
  L1                 3.0500      0.02      0.00
  P1                 3.0500      0.02      0.00
   
   
  Node Results at 16:00:00 hrs:
  --------------------------------------------------------
                     Demand      Head  Pressure  Chlorine
  Node                  gpm        ft       psi      mg/l
  --------------------------------------------------------
  8                    0.00   1000.00    433.30    0.6110
  10                   1.55   1000.00    433.30    0.1138
  src                 -1.55   1000.00      0.00    0.0000  Reservoir
   
   
  Link Results at 16:00:00 hrs:
  ----------------------------------------------
                       Flow  Velocity  Headloss
  Link                  gpm       fps   /1000ft
  ----------------------------------------------
  L1                 1.5500      0.01      0.00
  P1                 1.5500      0.01      0.00
   
   
  Node Results at 17:00:00 hrs:
  --------------------------------------------------------
                     Demand      Head  Pressure  Chlorine
  Node                  gpm        ft       psi      mg/l
  --------------------------------------------------------
  8                    0.00   1000.00    433.30    0.5953
  10                   3.90   1000.00    433.30    0.1654
  src                 -3.90   1000.00      0.00    0.0000  Reservoir
   
   
  Link Results at 17:00:00 hrs:
  ----------------------------------------------
                       Flow  Velocity  Headloss
  Link                  gpm       fps   /1000ft
  ----------------------------------------------
  L1                 3.9000      0.02      0.00
  P1                 3.9000      0.02      0.00
   
   
  Node Results at 18:00:00 hrs:
  --------------------------------------------------------
                     Demand      Head  Pressure  Chlorine
  Node                  gpm        ft       psi      mg/l
  --------------------------------------------------------
  8                    0.00   1000.00    433.30    0.5579
  10                   1.85   1000.00    433.30    0.1607
  src                 -1.85   1000.00      0.00    0.0000  Reservoir
   
   
  Link Results at 18:00:00 hrs:
  ----------------------------------------------
                       Flow  Velocity  Headloss
  Link                  gpm       fps   /1000ft
  ----------------------------------------------
  L1                 1.8499      0.01      0.00
  P1                 1.8500      0.01      0.00
   
   
  Node Results at 19:00:00 hrs:
  --------------------------------------------------------
                     Demand      Head  Pressure  Chlorine
  Node                  gpm        ft       psi      mg/l
  --------------------------------------------------------
  8                    0.00   1000.00    433.30    0.5381
  10                   3.35   1000.00    433.30    0.1564
  src                 -3.35   1000.00      0.00    0.0000  Reservoir
   
   
  Link Results at 19:00:00 hrs:
  ----------------------------------------------
                       Flow  Velocity  Headloss
  Link                  gpm       fps   /1000ft
  ----------------------------------------------
  L1                 3.3500      0.02      0.00
  P1                 3.3500      0.02      0.00
   
   
  Node Results at 20:00:00 hrs:
  --------------------------------------------------------
                     Demand      Head  Pressure  Chlorine
  Node                  gpm        ft       psi      mg/l
  --------------------------------------------------------
  8                    0.00   1000.00    433.30    0.5244
  10                   6.30   1000.00    433.30    0.4488
  src                 -6.30   1000.00      0.00    0.0000  Reservoir
   
   
  Link Results at 20:00:00 hrs:
  ----------------------------------------------
                       Flow  Velocity  Headloss
  Link                  gpm       fps   /1000ft
  ----------------------------------------------
  L1                 6.3000      0.04      0.00
  P1                 6.3000      0.04      0.00
   
   
  Node Results at 21:00:00 hrs:
  --------------------------------------------------------
                     Demand      Head  Pressure  Chlorine
  Node                  gpm        ft       psi      mg/l
  --------------------------------------------------------
  8                    0.00   1000.00    433.30    0.5062
  10                   7.80   1000.00    433.30    0.4398
  src                 -7.80   1000.00      0.00    0.0000  Reservoir
   
   
  Link Results at 21:00:00 hrs:
  ----------------------------------------------
                       Flow  Velocity  Headloss
  Link                  gpm       fps   /1000ft
  ----------------------------------------------
  L1                 7.8000      0.05      0.00
  P1                 7.8000      0.05      0.00
   
   
  Node Results at 22:00:00 hrs:
  --------------------------------------------------------
                     Demand      Head  Pressure  Chlorine
  Node                  gpm        ft       psi      mg/l
  --------------------------------------------------------
  8                    0.00   1000.00    433.30    0.0907
  10                   5.95   1000.00    433.30    0.4599
  src                 -5.95   1000.00      0.00    0.0000  Reservoir
   
   
  Link Results at 22:00:00 hrs:
  ----------------------------------------------
                       Flow  Velocity  Headloss
  Link                  gpm       fps   /1000ft
  ----------------------------------------------
  L1                 5.9500      0.04      0.00
  P1                 5.9500      0.04      0.00
   
   
  Node Results at 23:00:00 hrs:
  --------------------------------------------------------
                     Demand      Head  Pressure  Chlorine
  Node                  gpm        ft       psi      mg/l
  --------------------------------------------------------
  8                    0.00   1000.00    433.30    0.4481
  10                   6.30   1000.00    433.30    0.4532
  src                 -6.30   1000.00      0.00    0.0000  Reservoir
   
   
  Link Results at 23:00:00 hrs:
  ----------------------------------------------
                       Flow  Velocity  Headloss
  Link                  gpm       fps   /1000ft
  ----------------------------------------------
  L1                 6.3000      0.04      0.00
  P1                 6.3000      0.04      0.00
   
   
  Node Results at 24:00:00 hrs:
  --------------------------------------------------------
                     Demand      Head  Pressure  Chlorine
  Node                  gpm        ft       psi      mg/l
  --------------------------------------------------------
  8                    0.00   1000.00    433.30    0.5976
  10                   3.00   1000.00    433.30    0.4410
  src                 -3.00   1000.00      0.00    0.0000  Reservoir
   
   
  Link Results at 24:00:00 hrs:
  ----------------------------------------------
                       Flow  Velocity  Headloss
  Link                  gpm       fps   /1000ft
  ----------------------------------------------
  L1                 3.0000      0.02      0.00
  P1                 3.0000      0.02      0.00
   
   
  Node Results at 25:00:00 hrs:
  --------------------------------------------------------
                     Demand      Head  Pressure  Chlorine
  Node                  gpm        ft       psi      mg/l
  --------------------------------------------------------
  8                    0.00   1000.00    433.30    0.6031
  10                   5.50   1000.00    433.30    0.4388
  src                 -5.50   1000.00      0.00    0.0000  Reservoir
   
   
  Link Results at 25:00:00 hrs:
  ----------------------------------------------
                       Flow  Velocity  Headloss
  Link                  gpm       fps   /1000ft
  ----------------------------------------------
  L1                 5.5000      0.04      0.00
  P1                 5.5000      0.04      0.00
   
   
  Node Results at 26:00:00 hrs:
  --------------------------------------------------------
                     Demand      Head  Pressure  Chlorine
  Node                  gpm        ft       psi      mg/l
  --------------------------------------------------------
  8                    0.00   1000.00    433.30    0.6099
  10                   5.15   1000.00    433.30    0.4090
  src                 -5.15   1000.00      0.00    0.0000  Reservoir
   
   
  Link Results at 26:00:00 hrs:
  ----------------------------------------------
                       Flow  Velocity  Headloss
  Link                  gpm       fps   /1000ft
  ----------------------------------------------
  L1                 5.1500      0.03      0.00
  P1                 5.1500      0.03      0.00
   
   
  Node Results at 27:00:00 hrs:
  --------------------------------------------------------
                     Demand      Head  Pressure  Chlorine
  Node                  gpm        ft       psi      mg/l
  --------------------------------------------------------
  8                    0.00   1000.00    433.30    0.6175
  10                   3.65   1000.00    433.30    0.3946
  src                 -3.65   1000.00      0.00    0.0000  Reservoir
   
   
  Link Results at 27:00:00 hrs:
  ----------------------------------------------
                       Flow  Velocity  Headloss
  Link                  gpm       fps   /1000ft
  ----------------------------------------------
  L1                 3.6500      0.02      0.00
  P1                 3.6500      0.02      0.00
   
   
  Node Results at 28:00:00 hrs:
  --------------------------------------------------------
                     Demand      Head  Pressure  Chlorine
  Node                  gpm        ft       psi      mg/l
  --------------------------------------------------------
  8                    0.00   1000.00    433.30    0.5826
  10                   4.40   1000.00    433.30    0.3833
  src                 -4.40   1000.00      0.00    0.0000  Reservoir
   
   
  Link Results at 28:00:00 hrs:
  ----------------------------------------------
                       Flow  Velocity  Headloss
  Link                  gpm       fps   /1000ft
  ----------------------------------------------
  L1                 4.4000      0.03      0.00
  P1                 4.4000      0.03      0.00
   
   
  Node Results at 29:00:00 hrs:
  --------------------------------------------------------
                     Demand      Head  Pressure  Chlorine
  Node                  gpm        ft       psi      mg/l
  --------------------------------------------------------
  8                    0.00   1000.00    433.30    0.5453
  10                   5.30   1000.00    433.30    0.3724
  src                 -5.30   1000.00      0.00    0.0000  Reservoir
   
   
  Link Results at 29:00:00 hrs:
  ----------------------------------------------
                       Flow  Velocity  Headloss
  Link                  gpm       fps   /1000ft
  ----------------------------------------------
  L1                 5.3001      0.03      0.00
  P1                 5.3000      0.03      0.00
   
   
  Node Results at 30:00:00 hrs:
  --------------------------------------------------------
                     Demand      Head  Pressure  Chlorine
  Node                  gpm        ft       psi      mg/l
  --------------------------------------------------------
  8                    0.00   1000.00    433.30    0.5255
  10                   4.95   1000.00    433.30    0.0681
  src                 -4.95   1000.00      0.00    0.0000  Reservoir
   
   
  Link Results at 30:00:00 hrs:
  ----------------------------------------------
                       Flow  Velocity  Headloss
  Link                  gpm       fps   /1000ft
  ----------------------------------------------
  L1                 4.9500      0.03      0.00
  P1                 4.9500      0.03      0.00
   
   
  Node Results at 31:00:00 hrs:
  --------------------------------------------------------
                     Demand      Head  Pressure  Chlorine
  Node                  gpm        ft       psi      mg/l
  --------------------------------------------------------
  8                    0.00   1000.00    433.30    0.5059
  10                   8.60   1000.00    433.30    0.3421
  src                 -8.60   1000.00      0.00    0.0000  Reservoir
   
   
  Link Results at 31:00:00 hrs:
  ----------------------------------------------
                       Flow  Velocity  Headloss
  Link                  gpm       fps   /1000ft
  ----------------------------------------------
  L1                 8.6000      0.05      0.00
  P1                 8.6000      0.05      0.00
   
   
  Node Results at 32:00:00 hrs:
  --------------------------------------------------------
                     Demand      Head  Pressure  Chlorine
  Node                  gpm        ft       psi      mg/l
  --------------------------------------------------------
  8                    0.00   1000.00    433.30    0.1075
  10                   5.60   1000.00    433.30    0.4523
  src                 -5.60   1000.00      0.00    0.0000  Reservoir
   
   
  Link Results at 32:00:00 hrs:
  ----------------------------------------------
                       Flow  Velocity  Headloss
  Link                  gpm       fps   /1000ft
  ----------------------------------------------
  L1                 5.6000      0.04      0.00
  P1                 5.6000      0.04      0.00
   
   
  Node Results at 33:00:00 hrs:
  --------------------------------------------------------
                     Demand      Head  Pressure  Chlorine
  Node                  gpm        ft       psi      mg/l
  --------------------------------------------------------
  8                    0.00   1000.00    433.30    0.1032
  10                   6.70   1000.00    433.30    0.4645
  src                 -6.70   1000.00      0.00    0.0000  Reservoir
   
   
  Link Results at 33:00:00 hrs:
  ----------------------------------------------
                       Flow  Velocity  Headloss
  Link                  gpm       fps   /1000ft
  ----------------------------------------------
  L1                 6.7000      0.04      0.00
  P1                 6.7000      0.04      0.00
   
   
  Node Results at 34:00:00 hrs:
  --------------------------------------------------------
                     Demand      Head  Pressure  Chlorine
  Node                  gpm        ft       psi      mg/l
  --------------------------------------------------------
  8                    0.00   1000.00    433.30    0.5107
  10                   5.60   1000.00    433.30    0.4794
  src                 -5.60   1000.00      0.00    0.0000  Reservoir
   
   
  Link Results at 34:00:00 hrs:
  ----------------------------------------------
                       Flow  Velocity  Headloss
  Link                  gpm       fps   /1000ft
  ----------------------------------------------
  L1                 5.6001      0.04      0.00
  P1                 5.6000      0.04      0.00
   
   
  Node Results at 35:00:00 hrs:
  --------------------------------------------------------
                     Demand      Head  Pressure  Chlorine
  Node                  gpm        ft       psi      mg/l
  --------------------------------------------------------
  8                    0.00   1000.00    433.30    0.6102
  10                   4.85   1000.00    433.30    0.4521
  src                 -4.85   1000.00      0.00    0.0000  Reservoir
   
   
  Link Results at 35:00:00 hrs:
  ----------------------------------------------
                       Flow  Velocity  Headloss
  Link                  gpm       fps   /1000ft
  ----------------------------------------------
  L1                 4.8500      0.03      0.00
  P1                 4.8500      0.03      0.00
   
   
  Node Results at 36:00:00 hrs:
  --------------------------------------------------------
                     Demand      Head  Pressure  Chlorine
  Node                  gpm        ft       psi      mg/l
  --------------------------------------------------------
  8                    0.00   1000.00    433.30    0.6297
  10                   5.20   1000.00    433.30    0.4230
  src                 -5.20   1000.00      0.00    0.0000  Reservoir
   
   
  Link Results at 36:00:00 hrs:
  ----------------------------------------------
                       Flow  Velocity  Headloss
  Link                  gpm       fps   /1000ft
  ----------------------------------------------
  L1                 5.2000      0.03      0.00
  P1                 5.2000      0.03      0.00
   
   
  Node Results at 37:00:00 hrs:
  --------------------------------------------------------
                     Demand      Head  Pressure  Chlorine
  Node                  gpm        ft       psi      mg/l
  --------------------------------------------------------
  8                    0.00   1000.00    433.30    0.6371
  10                   5.75   1000.00    433.30    0.4076
  src                 -5.75   1000.00      0.00    0.0000  Reservoir
   
   
  Link Results at 37:00:00 hrs:
  ----------------------------------------------
                       Flow  Velocity  Headloss
  Link                  gpm       fps   /1000ft
  ----------------------------------------------
  L1                 5.7501      0.04      0.00
  P1                 5.7500      0.04      0.00
   
   
  Node Results at 38:00:00 hrs:
  --------------------------------------------------------
                     Demand      Head  Pressure  Chlorine
  Node                  gpm        ft       psi      mg/l
  --------------------------------------------------------
  8                    0.00   1000.00    433.30    0.6361
  10                   4.55   1000.00    433.30    0.3923
  src                 -4.55   1000.00      0.00    0.0000  Reservoir
   
   
  Link Results at 38:00:00 hrs:
  ----------------------------------------------
                       Flow  Velocity  Headloss
  Link                  gpm       fps   /1000ft
  ----------------------------------------------
  L1                 4.5500      0.03      0.00
  P1                 4.5500      0.03      0.00
   
   
  Node Results at 39:00:00 hrs:
  --------------------------------------------------------
                     Demand      Head  Pressure  Chlorine
  Node                  gpm        ft       psi      mg/l
  --------------------------------------------------------
  8                    0.00   1000.00    433.30    0.6421
  10                   3.05   1000.00    433.30    0.0841
  src                 -3.05   1000.00      0.00    0.0000  Reservoir
   
   
  Link Results at 39:00:00 hrs:
  ----------------------------------------------
                       Flow  Velocity  Headloss
  Link                  gpm       fps   /1000ft
  ----------------------------------------------
  L1                 3.0500      0.02      0.00
  P1                 3.0500      0.02      0.00
   
   
  Node Results at 40:00:00 hrs:
  --------------------------------------------------------
                     Demand      Head  Pressure  Chlorine
  Node                  gpm        ft       psi      mg/l
  --------------------------------------------------------
  8                    0.00   1000.00    433.30    0.6188
  10                   3.40   1000.00    433.30    0.0818
  src                 -3.40   1000.00      0.00    0.0000  Reservoir
   
   
  Link Results at 40:00:00 hrs:
  ----------------------------------------------
                       Flow  Velocity  Headloss
  Link                  gpm       fps   /1000ft
  ----------------------------------------------
  L1                 3.4000      0.02      0.00
  P1                 3.4000      0.02      0.00
   
   
  Node Results at 41:00:00 hrs:
  --------------------------------------------------------
                     Demand      Head  Pressure  Chlorine
  Node                  gpm        ft       psi      mg/l
  --------------------------------------------------------
  8                    0.00   1000.00    433.30    0.6028
  10                   2.30   1000.00    433.30    0.0795
  src                 -2.30   1000.00      0.00    0.0000  Reservoir
   
   
  Link Results at 41:00:00 hrs:
  ----------------------------------------------
                       Flow  Velocity  Headloss
  Link                  gpm       fps   /1000ft
  ----------------------------------------------
  L1                 2.2999      0.01      0.00
  P1                 2.3000      0.01      0.00
   
   
  Node Results at 42:00:00 hrs:
  --------------------------------------------------------
                     Demand      Head  Pressure  Chlorine
  Node                  gpm        ft       psi      mg/l
  --------------------------------------------------------
  8                    0.00   1000.00    433.30    0.5818
  10                   2.55   1000.00    433.30    0.0773
  src                 -2.55   1000.00      0.00    0.0000  Reservoir
   
   
  Link Results at 42:00:00 hrs:
  ----------------------------------------------
                       Flow  Velocity  Headloss
  Link                  gpm       fps   /1000ft
  ----------------------------------------------
  L1                 2.5501      0.02      0.00
  P1                 2.5500      0.02      0.00
   
   
  Node Results at 43:00:00 hrs:
  --------------------------------------------------------
                     Demand      Head  Pressure  Chlorine
  Node                  gpm        ft       psi      mg/l
  --------------------------------------------------------
  8                    0.00   1000.00    433.30    0.5669
  10                   3.70   1000.00    433.30    0.3844
  src                 -3.70   1000.00      0.00    0.0000  Reservoir
   
   
  Link Results at 43:00:00 hrs:
  ----------------------------------------------
                       Flow  Velocity  Headloss
  Link                  gpm       fps   /1000ft
  ----------------------------------------------
  L1                 3.7000      0.02      0.00
  P1                 3.7000      0.02      0.00
   
   
  Node Results at 44:00:00 hrs:
  --------------------------------------------------------
                     Demand      Head  Pressure  Chlorine
  Node                  gpm        ft       psi      mg/l
  --------------------------------------------------------
  8                    0.00   1000.00    433.30    0.5523
  10                   5.60   1000.00    433.30    0.3736
  src                 -5.60   1000.00      0.00    0.0000  Reservoir
   
   
  Link Results at 44:00:00 hrs:
  ----------------------------------------------
                       Flow  Velocity  Headloss
  Link                  gpm       fps   /1000ft
  ----------------------------------------------
  L1                 5.6000      0.04      0.00
  P1                 5.6000      0.04      0.00
   
   
  Node Results at 45:00:00 hrs:
  --------------------------------------------------------
                     Demand      Head  Pressure  Chlorine
  Node                  gpm        ft       psi      mg/l
  --------------------------------------------------------
  8                    0.00   1000.00    433.30    0.5136
  10                   6.70   1000.00    433.30    0.4516
  src                 -6.70   1000.00      0.00    0.0000  Reservoir
   
   
  Link Results at 45:00:00 hrs:
  ----------------------------------------------
                       Flow  Velocity  Headloss
  Link                  gpm       fps   /1000ft
  ----------------------------------------------
  L1                 6.7000      0.04      0.00
  P1                 6.7000      0.04      0.00
   
   
  Node Results at 46:00:00 hrs:
  --------------------------------------------------------
                     Demand      Head  Pressure  Chlorine
  Node                  gpm        ft       psi      mg/l
  --------------------------------------------------------
  8                    0.00   1000.00    433.30    0.4943
  10                   6.30   1000.00    433.30    0.4583
  src                 -6.30   1000.00      0.00    0.0000  Reservoir
   
   
  Link Results at 46:00:00 hrs:
  ----------------------------------------------
                       Flow  Velocity  Headloss
  Link                  gpm       fps   /1000ft
  ----------------------------------------------
  L1                 6.3000      0.04      0.00
  P1                 6.3000      0.04      0.00
   
   
  Node Results at 47:00:00 hrs:
  --------------------------------------------------------
                     Demand      Head  Pressure  Chlorine
  Node                  gpm        ft       psi      mg/l
  --------------------------------------------------------
  8                    0.00   1000.00    433.30    0.1116
  10                   4.85   1000.00    433.30    0.4573
  src                 -4.85   1000.00      0.00    0.0000  Reservoir
   
   
  Link Results at 47:00:00 hrs:
  ----------------------------------------------
                       Flow  Velocity  Headloss
  Link                  gpm       fps   /1000ft
  ----------------------------------------------
  L1                 4.8501      0.03      0.00
  P1                 4.8500      0.03      0.00
   
   
  Node Results at 48:00:00 hrs:
  --------------------------------------------------------
                     Demand      Head  Pressure  Chlorine
  Node                  gpm        ft       psi      mg/l
  --------------------------------------------------------
  8                    0.00   1000.00    433.30    0.4522
  10                   4.10   1000.00    433.30    0.4567
  src                 -4.10   1000.00      0.00    0.0000  Reservoir
   
   
  Link Results at 48:00:00 hrs:
  ----------------------------------------------
                       Flow  Velocity  Headloss
  Link                  gpm       fps   /1000ft
  ----------------------------------------------
  L1                 4.1000      0.03      0.00
  P1                 4.1000      0.03      0.00
   
   
  Node Results at 49:00:00 hrs:
  --------------------------------------------------------
                     Demand      Head  Pressure  Chlorine
  Node                  gpm        ft       psi      mg/l
  --------------------------------------------------------
  8                    0.00   1000.00    433.30    0.5253
  10                   6.85   1000.00    433.30    0.4600
  src                 -6.85   1000.00      0.00    0.0000  Reservoir
   
   
  Link Results at 49:00:00 hrs:
  ----------------------------------------------
                       Flow  Velocity  Headloss
  Link                  gpm       fps   /1000ft
  ----------------------------------------------
  L1                 6.8500      0.04      0.00
  P1                 6.8500      0.04      0.00
   
   
  Node Results at 50:00:00 hrs:
  --------------------------------------------------------
                     Demand      Head  Pressure  Chlorine
  Node                  gpm        ft       psi      mg/l
  --------------------------------------------------------
  8                    0.00   1000.00    433.30    0.5839
  10                   5.15   1000.00    433.30    0.4361
  src                 -5.15   1000.00      0.00    0.0000  Reservoir
   
   
  Link Results at 50:00:00 hrs:
  ----------------------------------------------
                       Flow  Velocity  Headloss
  Link                  gpm       fps   /1000ft
  ----------------------------------------------
  L1                 5.1500      0.03      0.00
  P1                 5.1500      0.03      0.00
   
   
  Node Results at 51:00:00 hrs:
  --------------------------------------------------------
                     Demand      Head  Pressure  Chlorine
  Node                  gpm        ft       psi      mg/l
  --------------------------------------------------------
  8                    0.00   1000.00    433.30    0.6195
  10                   4.05   1000.00    433.30    0.4218
  src                 -4.05   1000.00      0.00    0.0000  Reservoir
   
   
  Link Results at 51:00:00 hrs:
  ----------------------------------------------
                       Flow  Velocity  Headloss
  Link                  gpm       fps   /1000ft
  ----------------------------------------------
  L1                 4.0500      0.03      0.00
  P1                 4.0500      0.03      0.00
   
   
  Node Results at 52:00:00 hrs:
  --------------------------------------------------------
                     Demand      Head  Pressure  Chlorine
  Node                  gpm        ft       psi      mg/l
  --------------------------------------------------------
  8                    0.00   1000.00    433.30    0.6014
  10                   4.40   1000.00    433.30    0.3930
  src                 -4.40   1000.00      0.00    0.0000  Reservoir
   
   
  Link Results at 52:00:00 hrs:
  ----------------------------------------------
                       Flow  Velocity  Headloss
  Link                  gpm       fps   /1000ft
  ----------------------------------------------
  L1                 4.4001      0.03      0.00
  P1                 4.4000      0.03      0.00
   
   
  Node Results at 53:00:00 hrs:
  --------------------------------------------------------
                     Demand      Head  Pressure  Chlorine
  Node                  gpm        ft       psi      mg/l
  --------------------------------------------------------
  8                    0.00   1000.00    433.30    0.5799
  10                   4.05   1000.00    433.30    0.3818
  src                 -4.05   1000.00      0.00    0.0000  Reservoir
   
   
  Link Results at 53:00:00 hrs:
  ----------------------------------------------
                       Flow  Velocity  Headloss
  Link                  gpm       fps   /1000ft
  ----------------------------------------------
  L1                 4.0500      0.03      0.00
  P1                 4.0500      0.03      0.00
   
   
  Node Results at 54:00:00 hrs:
  --------------------------------------------------------
                     Demand      Head  Pressure  Chlorine
  Node                  gpm        ft       psi      mg/l
  --------------------------------------------------------
  8                    0.00   1000.00    433.30    0.5371
  10                   4.05   1000.00    433.30    0.3698
  src                 -4.05   1000.00      0.00    0.0000  Reservoir
   
   
  Link Results at 54:00:00 hrs:
  ----------------------------------------------
                       Flow  Velocity  Headloss
  Link                  gpm       fps   /1000ft
  ----------------------------------------------
  L1                 4.0500      0.03      0.00
  P1                 4.0500      0.03      0.00
   
   
  Node Results at 55:00:00 hrs:
  --------------------------------------------------------
                     Demand      Head  Pressure  Chlorine
  Node                  gpm        ft       psi      mg/l
  --------------------------------------------------------
  8                    0.00   1000.00    433.30    0.5179
  10                   6.30   1000.00    433.30    0.0852
  src                 -6.30   1000.00      0.00    0.0000  Reservoir
   
   
  Link Results at 55:00:00 hrs:
  ----------------------------------------------
                       Flow  Velocity  Headloss
  Link                  gpm       fps   /1000ft
  ----------------------------------------------
  L1                 6.3000      0.04      0.00
  P1                 6.3000      0.04      0.00
   