  Page 1                                    Mon Jul 29 13:18:06 2019

  ******************************************************************
  *                           E P A N E T                          *
  *                   Hydraulic and Water Quality                  *
  *                   Analysis for Pipe Networks                   *
  *                         Version 2.2                            *
  ******************************************************************
  
  Analysis begun Mon Jul 29 13:18:06 2019

   
  Node Results at 0:00:00 hrs:
  --------------------------------------------------------
                     Demand      Head  Pressure  Flouride
  Node                  gpm        ft       psi      mg/l
  --------------------------------------------------------
  33                   0.00   1000.00    433.30    0.1000
  i1                   0.24   1000.00    433.30    0.1000
  i2                   0.15   1000.00    433.30    0.1000
  i3                   0.30   1000.00    433.30    0.1000
  i4                   0.46   1000.00    433.30    0.1000
  34                   0.74   1000.00    433.30    0.1000
  src                 -1.89   1000.00      0.00    0.0000  Reservoir
   
   
  Link Results at 0:00:00 hrs:
  ----------------------------------------------
                       Flow  Velocity  Headloss
  Link                  gpm       fps   /1000ft
  ----------------------------------------------
  L1                 1.8900      0.01      0.00
  P1                 1.8900      0.01      0.00
  P2                 1.6473      0.01      0.00
  P3                 1.4991      0.01      0.00
  P4                 1.1957      0.01      0.00
  P5                 0.7401      0.00      0.00
   
   
  Node Results at 1:00:00 hrs:
  --------------------------------------------------------
                     Demand      Head  Pressure  Flouride
  Node                  gpm        ft       psi      mg/l
  --------------------------------------------------------
  33                   0.00   1000.00    433.30    0.1000
  i1                   0.20   1000.00    433.30    0.0979
  i2                   0.12   1000.00    433.30    0.0970
  i3                   0.25   1000.00    433.30    0.0969
  i4                   0.38   1000.00    433.30    0.0970
  34                   0.61   1000.00    433.30    0.0970
  src                 -1.56   1000.00      0.00    0.0000  Reservoir
   
   
  Link Results at 1:00:00 hrs:
  ----------------------------------------------
                       Flow  Velocity  Headloss
  Link                  gpm       fps   /1000ft
  ----------------------------------------------
  L1                 1.5600      0.01      0.00
  P1                 1.5600      0.01      0.00
  P2                 1.3597      0.01      0.00
  P3                 1.2374      0.01      0.00
  P4                 0.9869      0.01      0.00
  P5                 0.6109      0.00      0.00
   
   
  Node Results at 2:00:00 hrs:
  --------------------------------------------------------
                     Demand      Head  Pressure  Flouride
  Node                  gpm        ft       psi      mg/l
  --------------------------------------------------------
  33                   0.00   1000.00    433.30    0.0971
  i1                   0.19   1000.00    433.30    0.0953
  i2                   0.11   1000.00    433.30    0.0943
  i3                   0.23   1000.00    433.30    0.0940
  i4                   0.35   1000.00    433.30    0.0941
  34                   0.57   1000.00    433.30    0.0941
  src                 -1.45   1000.00      0.00    0.0000  Reservoir
   
   
  Link Results at 2:00:00 hrs:
  ----------------------------------------------
                       Flow  Velocity  Headloss
  Link                  gpm       fps   /1000ft
  ----------------------------------------------
  L1                 1.4501      0.01      0.00
  P1                 1.4500      0.01      0.00
  P2                 1.2638      0.01      0.00
  P3                 1.1501      0.01      0.00
  P4                 0.9173      0.01      0.00
  P5                 0.5678      0.00      0.00
   
   
  Node Results at 3:00:00 hrs:
  --------------------------------------------------------
                     Demand      Head  Pressure  Flouride
  Node                  gpm        ft       psi      mg/l
  --------------------------------------------------------
  33                   0.00   1000.00    433.30    0.0942
  i1                   0.19   1000.00    433.30    0.0926
  i2                   0.11   1000.00    433.30    0.0916
  i3                   0.23   1000.00    433.30    0.0912
  i4                   0.35   1000.00    433.30    0.0913
  34                   0.57   1000.00    433.30    0.0913
  src                 -1.45   1000.00      0.00    0.0000  Reservoir
   
   
  Link Results at 3:00:00 hrs:
  ----------------------------------------------
                       Flow  Velocity  Headloss
  Link                  gpm       fps   /1000ft
  ----------------------------------------------
  L1                 1.4499      0.01      0.00
  P1                 1.4500      0.01      0.00
  P2                 1.2638      0.01      0.00
  P3                 1.1501      0.01      0.00
  P4                 0.9173      0.01      0.00
  P5                 0.5678      0.00      0.00
   
   
  Node Results at 4:00:00 hrs:
  --------------------------------------------------------
                     Demand      Head  Pressure  Flouride
  Node                  gpm        ft       psi      mg/l
  --------------------------------------------------------
  33                   0.00   1000.00    433.30    0.0913
  i1                   0.17   1000.00    433.30    0.0898
  i2                   0.11   1000.00    433.30    0.0890
  i3                   0.22   1000.00    433.30    0.0886
  i4                   0.32   1000.00    433.30    0.0885
  34                   0.52   1000.00    433.30    0.0886
  src                 -1.34   1000.00      0.00    0.0000  Reservoir
   
   
  Link Results at 4:00:00 hrs:
  ----------------------------------------------
                       Flow  Velocity  Headloss
  Link                  gpm       fps   /1000ft
  ----------------------------------------------
  L1                 1.3401      0.01      0.00
  P1                 1.3400      0.01      0.00
  P2                 1.1679      0.01      0.00
  P3                 1.0629      0.01      0.00
  P4                 0.8478      0.01      0.00
  P5                 0.5247      0.00      0.00
   
   
  Node Results at 5:00:00 hrs:
  --------------------------------------------------------
                     Demand      Head  Pressure  Flouride
  Node                  gpm        ft       psi      mg/l
  --------------------------------------------------------
  33                   0.00   1000.00    433.30    0.0884
  i1                   0.23   1000.00    433.30    0.0870
  i2                   0.14   1000.00    433.30    0.0864
  i3                   0.29   1000.00    433.30    0.0860
  i4                   0.43   1000.00    433.30    0.0859
  34                   0.70   1000.00    433.30    0.0860
  src                 -1.78   1000.00      0.00    0.0000  Reservoir
   
   
  Link Results at 5:00:00 hrs:
  ----------------------------------------------
                       Flow  Velocity  Headloss
  Link                  gpm       fps   /1000ft
  ----------------------------------------------
  L1                 1.7800      0.01      0.00
  P1                 1.7800      0.01      0.00
  P2                 1.5514      0.01      0.00
  P3                 1.4119      0.01      0.00
  P4                 1.1261      0.01      0.00
  P5                 0.6970      0.00      0.00
   
   
  Node Results at 6:00:00 hrs:
  --------------------------------------------------------
                     Demand      Head  Pressure  Flouride
  Node                  gpm        ft       psi      mg/l
  --------------------------------------------------------
  33                   0.00   1000.00    433.30    0.0855
  i1                   0.25   1000.00    433.30    0.0842
  i2                   0.15   1000.00    433.30    0.0838
  i3                   0.31   1000.00    433.30    0.0835
  i4                   0.46   1000.00    433.30    0.0834
  34                   0.75   1000.00    433.30    0.0834
  src                 -1.92   1000.00      0.00    0.0000  Reservoir
   
   
  Link Results at 6:00:00 hrs:
  ----------------------------------------------
                       Flow  Velocity  Headloss
  Link                  gpm       fps   /1000ft
  ----------------------------------------------
  L1                 1.9201      0.01      0.00
  P1                 1.9200      0.01      0.00
  P2                 1.6735      0.01      0.00
  P3                 1.5229      0.01      0.00
  P4                 1.2147      0.01      0.00
  P5                 0.7519      0.00      0.00
   
   
  Node Results at 7:00:00 hrs:
  --------------------------------------------------------
                     Demand      Head  Pressure  Flouride
  Node                  gpm        ft       psi      mg/l
  --------------------------------------------------------
  33                   0.00   1000.00    433.30    0.0824
  i1                   0.13   1000.00    433.30    0.0813
  i2                   0.08   1000.00    433.30    0.0812
  i3                   0.16   1000.00    433.30    0.0810
  i4                   0.24   1000.00    433.30    0.0809
  34                   0.39   1000.00    433.30    0.0809
  src                 -1.00   1000.00      0.00    0.0000  Reservoir
   
   
  Link Results at 7:00:00 hrs:
  ----------------------------------------------
                       Flow  Velocity  Headloss
  Link                  gpm       fps   /1000ft
  ----------------------------------------------
  L1                 1.0000      0.01      0.00
  P1                 1.0000      0.01      0.00
  P2                 0.8716      0.01      0.00
  P3                 0.7932      0.01      0.00
  P4                 0.6326      0.00      0.00
  P5                 0.3916      0.00      0.00
   
   
  Node Results at 8:00:00 hrs:
  --------------------------------------------------------
                     Demand      Head  Pressure  Flouride
  Node                  gpm        ft       psi      mg/l
  --------------------------------------------------------
  33                   0.00   1000.00    433.30    0.0797
  i1                   0.13   1000.00    433.30    0.0787
  i2                   0.08   1000.00    433.30    0.0787
  i3                   0.16   1000.00    433.30    0.0786
  i4                   0.24   1000.00    433.30    0.0785
  34                   0.39   1000.00    433.30    0.0786
  src                 -1.00   1000.00      0.00    0.0000  Reservoir
   
   
  Link Results at 8:00:00 hrs:
  ----------------------------------------------
                       Flow  Velocity  Headloss
  Link                  gpm       fps   /1000ft
  ----------------------------------------------
  L1                 1.0000      0.01      0.00
  P1                 1.0000      0.01      0.00
  P2                 0.8716      0.01      0.00
  P3                 0.7932      0.01      0.00
  P4                 0.6326      0.00      0.00
  P5                 0.3916      0.00      0.00
   
   
  Node Results at 9:00:00 hrs:
  --------------------------------------------------------
                     Demand      Head  Pressure  Flouride
  Node                  gpm        ft       psi      mg/l
  --------------------------------------------------------
  33                   0.00   1000.00    433.30    0.0775
  i1                   0.26   1000.00    433.30    0.0762
  i2                   0.16   1000.00    433.30    0.0763
  i3                   0.32   1000.00    433.30    0.0763
  i4                   0.48   1000.00    433.30    0.0763
  34                   0.79   1000.00    433.30    0.0763
  src                 -2.01   1000.00      0.00    0.0000  Reservoir
   
   
  Link Results at 9:00:00 hrs:
  ----------------------------------------------
                       Flow  Velocity  Headloss
  Link                  gpm       fps   /1000ft
  ----------------------------------------------
  L1                 2.0100      0.01      0.00
  P1                 2.0100      0.01      0.00
  P2                 1.7519      0.01      0.00
  P3                 1.5943      0.01      0.00
  P4                 1.2716      0.01      0.00
  P5                 0.7871      0.01      0.00
   
   
  Node Results at 10:00:00 hrs:
  --------------------------------------------------------
                     Demand      Head  Pressure  Flouride
  Node                  gpm        ft       psi      mg/l
  --------------------------------------------------------
  33                   0.00   1000.00    433.30    0.0754
  i1                   0.47   1000.00    433.30    0.0741
  i2                   0.29   1000.00    433.30    0.0739
  i3                   0.59   1000.00    433.30    0.0739
  i4                   0.89   1000.00    433.30    0.0740
  34                   1.44   1000.00    433.30    0.0740
  src                 -3.69   1000.00      0.00    0.0000  Reservoir
   
   
  Link Results at 10:00:00 hrs:
  ----------------------------------------------
                       Flow  Velocity  Headloss
  Link                  gpm       fps   /1000ft
  ----------------------------------------------
  L1                 3.6899      0.02      0.00
  P1                 3.6900      0.02      0.00
  P2                 3.2162      0.02      0.00
  P3                 2.9268      0.02      0.00
  P4                 2.3345      0.01      0.00
  P5                 1.4450      0.01      0.00
   
   
  Node Results at 11:00:00 hrs:
  --------------------------------------------------------
                     Demand      Head  Pressure  Flouride
  Node                  gpm        ft       psi      mg/l
  --------------------------------------------------------
  33                   0.00   1000.00    433.30    0.0733
  i1                   0.19   1000.00    433.30    0.0723
  i2                   0.11   1000.00    433.30    0.0716
  i3                   0.23   1000.00    433.30    0.0715
  i4                   0.35   1000.00    433.30    0.0716
  34                   0.57   1000.00    433.30    0.0716
  src                 -1.45   1000.00      0.00    0.0000  Reservoir
   
   
  Link Results at 11:00:00 hrs:
  ----------------------------------------------
                       Flow  Velocity  Headloss
  Link                  gpm       fps   /1000ft
  ----------------------------------------------
  L1                 1.4500      0.01      0.00
  P1                 1.4500      0.01      0.00
  P2                 1.2638      0.01      0.00
  P3                 1.1501      0.01      0.00
  P4                 0.9173      0.01      0.00
  P5                 0.5678      0.00      0.00
   
   
  Node Results at 12:00:00 hrs:
  --------------------------------------------------------
                     Demand      Head  Pressure  Flouride
  Node                  gpm        ft       psi      mg/l
  --------------------------------------------------------
  33                   0.00   1000.00    433.30    0.0700
  i1                   0.18   1000.00    433.30    0.0694
  i2                   0.11   1000.00    433.30    0.0695
  i3                   0.22   1000.00    433.30    0.0694
  i4                   0.33   1000.00    433.30    0.0694
  34                   0.54   1000.00    433.30    0.0695
  src                 -1.38   1000.00      0.00    0.0000  Reservoir
   
   
  Link Results at 12:00:00 hrs:
  ----------------------------------------------
                       Flow  Velocity  Headloss
  Link                  gpm       fps   /1000ft
  ----------------------------------------------
  L1                 1.3800      0.01      0.00
  P1                 1.3800      0.01      0.00
  P2                 1.2028      0.01      0.00
  P3                 1.0946      0.01      0.00
  P4                 0.8731      0.01      0.00
  P5                 0.5404      0.00      0.00
   
   
  Node Results at 13:00:00 hrs:
  --------------------------------------------------------
                     Demand      Head  Pressure  Flouride
  Node                  gpm        ft       psi      mg/l
  --------------------------------------------------------
  33                   0.00   1000.00    433.30    0.0680
  i1                   0.13   1000.00    433.30    0.0671
  i2                   0.08   1000.00    433.30    0.0673
  i3                   0.16   1000.00    433.30    0.0673
  i4                   0.25   1000.00    433.30    0.0674
  34                   0.40   1000.00    433.30    0.0675
  src                 -1.02   1000.00      0.00    0.0000  Reservoir
   
   
  Link Results at 13:00:00 hrs:
  ----------------------------------------------
                       Flow  Velocity  Headloss
  Link                  gpm       fps   /1000ft
  ----------------------------------------------
  L1                 1.0200      0.01      0.00
  P1                 1.0200      0.01      0.00
  P2                 0.8890      0.01      0.00
  P3                 0.8090      0.01      0.00
  P4                 0.6453      0.00      0.00
  P5                 0.3994      0.00      0.00
   
   
  Node Results at 14:00:00 hrs:
  --------------------------------------------------------
                     Demand      Head  Pressure  Flouride
  Node                  gpm        ft       psi      mg/l
  --------------------------------------------------------
  33                   0.00   1000.00    433.30    0.0661
  i1                   0.27   1000.00    433.30    0.0650
  i2                   0.17   1000.00    433.30    0.0652
  i3                   0.34   1000.00    433.30    0.0652
  i4                   0.52   1000.00    433.30    0.0654
  34                   0.84   1000.00    433.30    0.0655
  src                 -2.14   1000.00      0.00    0.0000  Reservoir
   
   
  Link Results at 14:00:00 hrs:
  ----------------------------------------------
                       Flow  Velocity  Headloss
  Link                  gpm       fps   /1000ft
  ----------------------------------------------
  L1                 2.1400      0.01      0.00
  P1                 2.1400      0.01      0.00
  P2                 1.8652      0.01      0.00
  P3                 1.6974      0.01      0.00
  P4                 1.3539      0.01      0.00
  P5                 0.8380      0.01      0.00
   
   
  Node Results at 15:00:00 hrs:
  --------------------------------------------------------
                     Demand      Head  Pressure  Flouride
  Node                  gpm        ft       psi      mg/l
  --------------------------------------------------------
  33                   0.00   1000.00    433.30    0.0643
  i1                   0.12   1000.00    433.30    0.0632
  i2                   0.07   1000.00    433.30    0.0631
  i3                   0.15   1000.00    433.30    0.0632
  i4                   0.22   1000.00    433.30    0.0634
  34                   0.36   1000.00    433.30    0.0635
  src                 -0.92   1000.00      0.00    0.0000  Reservoir
   
   
  Link Results at 15:00:00 hrs:
  ----------------------------------------------
                       Flow  Velocity  Headloss
  Link                  gpm       fps   /1000ft
  ----------------------------------------------
  L1                 0.9200      0.01      0.00
  P1                 0.9200      0.01      0.00
  P2                 0.8019      0.01      0.00
  P3                 0.7297      0.00      0.00
  P4                 0.5820      0.00      0.00
  P5                 0.3603      0.00      0.00
   
   
  Node Results at 16:00:00 hrs:
  --------------------------------------------------------
                     Demand      Head  Pressure  Flouride
  Node                  gpm        ft       psi      mg/l
  --------------------------------------------------------
  33                   0.00   1000.00    433.30    0.0625
  i1                   0.06   1000.00    433.30    0.0614
  i2                   0.04   1000.00    433.30    0.0612
  i3                   0.07   1000.00    433.30    0.0613
  i4                   0.11   1000.00    433.30    0.0615
  34                   0.18   1000.00    433.30    0.0617
  src                 -0.46   1000.00      0.00    0.0000  Reservoir
   
   
  Link Results at 16:00:00 hrs:
  ----------------------------------------------
                       Flow  Velocity  Headloss
  Link                  gpm       fps   /1000ft
  ----------------------------------------------
  L1                 0.4599      0.00      0.00
  P1                 0.4600      0.00      0.00
  P2                 0.4009      0.00      0.00
  P3                 0.3649      0.00      0.00
  P4                 0.2910      0.00      0.00
  P5                 0.1801      0.00      0.00
   
   
  Node Results at 17:00:00 hrs:
  --------------------------------------------------------
                     Demand      Head  Pressure  Flouride
  Node                  gpm        ft       psi      mg/l
  --------------------------------------------------------
  33                   0.00   1000.00    433.30    0.0608
  i1                   0.15   1000.00    433.30    0.0596
  i2                   0.09   1000.00    433.30    0.0595
  i3                   0.19   1000.00    433.30    0.0595
  i4                   0.28   1000.00    433.30    0.0598
  34                   0.46   1000.00    433.30    0.0599
  src                 -1.17   1000.00      0.00    0.0000  Reservoir
   
   
  Link Results at 17:00:00 hrs:
  ----------------------------------------------
                       Flow  Velocity  Headloss
  Link                  gpm       fps   /1000ft
  ----------------------------------------------
  L1                 1.1702      0.01      0.00
  P1                 1.1700      0.01      0.00
  P2                 1.0198      0.01      0.00
  P3                 0.9280      0.01      0.00
  P4                 0.7402      0.00      0.00
  P5                 0.4582      0.00      0.00
   
   
  Node Results at 18:00:00 hrs:
  --------------------------------------------------------
                     Demand      Head  Pressure  Flouride
  Node                  gpm        ft       psi      mg/l
  --------------------------------------------------------
  33                   0.00   1000.00    433.30    0.0592
  i1                   0.07   1000.00    433.30    0.0580
  i2                   0.04   1000.00    433.30    0.0577
  i3                   0.09   1000.00    433.30    0.0577
  i4                   0.13   1000.00    433.30    0.0580
  34                   0.22   1000.00    433.30    0.0582
  src                 -0.56   1000.00      0.00    0.0000  Reservoir
   
   
  Link Results at 18:00:00 hrs:
  ----------------------------------------------
                       Flow  Velocity  Headloss
  Link                  gpm       fps   /1000ft
  ----------------------------------------------
  L1                 0.5601      0.00      0.00
  P1                 0.5600      0.00      0.00
  P2                 0.4881      0.00      0.00
  P3                 0.4442      0.00      0.00
  P4                 0.3543      0.00      0.00
  P5                 0.2193      0.00      0.00
   
   
  Node Results at 19:00:00 hrs:
  --------------------------------------------------------
                     Demand      Head  Pressure  Flouride
  Node                  gpm        ft       psi      mg/l
  --------------------------------------------------------
  33                   0.00   1000.00    433.30    0.0576
  i1                   0.13   1000.00    433.30    0.0564
  i2                   0.08   1000.00    433.30    0.0561
  i3                   0.16   1000.00    433.30    0.0561
  i4                   0.24   1000.00    433.30    0.0564
  34                   0.39   1000.00    433.30    0.0566
  src                 -1.00   1000.00      0.00    0.0000  Reservoir
   
   
  Link Results at 19:00:00 hrs:
  ----------------------------------------------
                       Flow  Velocity  Headloss
  Link                  gpm       fps   /1000ft
  ----------------------------------------------
  L1                 1.0001      0.01      0.00
  P1                 1.0000      0.01      0.00
  P2                 0.8716      0.01      0.00
  P3                 0.7932      0.01      0.00
  P4                 0.6326      0.00      0.00
  P5                 0.3916      0.00      0.00
   
   
  Node Results at 20:00:00 hrs:
  --------------------------------------------------------
                     Demand      Head  Pressure  Flouride
  Node                  gpm        ft       psi      mg/l
  --------------------------------------------------------
  33                   0.00   1000.00    433.30    0.0561
  i1                   0.24   1000.00    433.30    0.0549
  i2                   0.15   1000.00    433.30    0.0545
  i3                   0.30   1000.00    433.30    0.0544
  i4                   0.46   1000.00    433.30    0.0547
  34                   0.74   1000.00    433.30    0.0549
  src                 -1.89   1000.00      0.00    0.0000  Reservoir
   
   
  Link Results at 20:00:00 hrs:
  ----------------------------------------------
                       Flow  Velocity  Headloss
  Link                  gpm       fps   /1000ft
  ----------------------------------------------
  L1                 1.8900      0.01      0.00
  P1                 1.8900      0.01      0.00
  P2                 1.6473      0.01      0.00
  P3                 1.4991      0.01      0.00
  P4                 1.1957      0.01      0.00
  P5                 0.7401      0.00      0.00
   
   
  Node Results at 21:00:00 hrs:
  --------------------------------------------------------
                     Demand      Head  Pressure  Flouride
  Node                  gpm        ft       psi      mg/l
  --------------------------------------------------------
  33                   0.00   1000.00    433.30    0.0546
  i1                   0.30   1000.00    433.30    0.0536
  i2                   0.18   1000.00    433.30    0.0529
  i3                   0.38   1000.00    433.30    0.0527
  i4                   0.56   1000.00    433.30    0.0530
  34                   0.92   1000.00    433.30    0.0532
  src                 -2.34   1000.00      0.00    0.0000  Reservoir
   
   
  Link Results at 21:00:00 hrs:
  ----------------------------------------------
                       Flow  Velocity  Headloss
  Link                  gpm       fps   /1000ft
  ----------------------------------------------
  L1                 2.3400      0.01      0.00
  P1                 2.3400      0.01      0.00
  P2                 2.0395      0.01      0.00
  P3                 1.8560      0.01      0.00
  P4                 1.4804      0.01      0.00
  P5                 0.9163      0.01      0.00
   
   
  Node Results at 22:00:00 hrs:
  --------------------------------------------------------
                     Demand      Head  Pressure  Flouride
  Node                  gpm        ft       psi      mg/l
  --------------------------------------------------------
  33                   0.00   1000.00    433.30    0.0530
  i1                   0.23   1000.00    433.30    0.0521
  i2                   0.14   1000.00    433.30    0.0515
  i3                   0.29   1000.00    433.30    0.0512
  i4                   0.43   1000.00    433.30    0.0513
  34                   0.70   1000.00    433.30    0.0515
  src                 -1.78   1000.00      0.00    0.0000  Reservoir
   
   
  Link Results at 22:00:00 hrs:
  ----------------------------------------------
                       Flow  Velocity  Headloss
  Link                  gpm       fps   /1000ft
  ----------------------------------------------
  L1                 1.7800      0.01      0.00
  P1                 1.7800      0.01      0.00
  P2                 1.5514      0.01      0.00
  P3                 1.4119      0.01      0.00
  P4                 1.1261      0.01      0.00
  P5                 0.6970      0.00      0.00
   
   
  Node Results at 23:00:00 hrs:
  --------------------------------------------------------
                     Demand      Head  Pressure  Flouride
  Node                  gpm        ft       psi      mg/l
  --------------------------------------------------------
  33                   0.00   1000.00    433.30    0.3654
  i1                   0.24   1000.00    433.30    0.0504
  i2                   0.15   1000.00    433.30    0.0501
  i3                   0.30   1000.00    433.30    0.0497
  i4                   0.46   1000.00    433.30    0.0497
  34                   0.74   1000.00    433.30    0.0499
  src                 -1.89   1000.00      0.00    0.0000  Reservoir
   
   
  Link Results at 23:00:00 hrs:
  ----------------------------------------------
                       Flow  Velocity  Headloss
  Link                  gpm       fps   /1000ft
  ----------------------------------------------
  L1                 1.8900      0.01      0.00
  P1                 1.8900      0.01      0.00
  P2                 1.6473      0.01      0.00
  P3                 1.4991      0.01      0.00
  P4                 1.1957      0.01      0.00
  P5                 0.7401      0.00      0.00
   
   
  Node Results at 24:00:00 hrs:
  --------------------------------------------------------
                     Demand      Head  Pressure  Flouride
  Node                  gpm        ft       psi      mg/l
  --------------------------------------------------------
  33                   0.00   1000.00    433.30    0.3936
  i1                   0.12   1000.00    433.30    0.3871
  i2                   0.07   1000.00    433.30    0.0485
  i3                   0.14   1000.00    433.30    0.0483
  i4                   0.22   1000.00    433.30    0.0482
  34                   0.35   1000.00    433.30    0.0484
  src                 -0.90   1000.00      0.00    0.0000  Reservoir
   
   
  Link Results at 24:00:00 hrs:
  ----------------------------------------------
                       Flow  Velocity  Headloss
  Link                  gpm       fps   /1000ft
  ----------------------------------------------
  L1                 0.9001      0.01      0.00
  P1                 0.9000      0.01      0.00
  P2                 0.7844      0.01      0.00
  P3                 0.7139      0.00      0.00
  P4                 0.5694      0.00      0.00
  P5                 0.3524      0.00      0.00
   
   
  Node Results at 25:00:00 hrs:
  --------------------------------------------------------
                     Demand      Head  Pressure  Flouride
  Node                  gpm        ft       psi      mg/l
  --------------------------------------------------------
  33                   0.00   1000.00    433.30    0.4034
  i1                   0.21   1000.00    433.30    0.3748
  i2                   0.13   1000.00    433.30    0.0471
  i3                   0.26   1000.00    433.30    0.0469
  i4                   0.40   1000.00    433.30    0.0469
  34                   0.65   1000.00    433.30    0.0470
  src                 -1.65   1000.00      0.00    0.0000  Reservoir
   
   
  Link Results at 25:00:00 hrs:
  ----------------------------------------------
                       Flow  Velocity  Headloss
  Link                  gpm       fps   /1000ft
  ----------------------------------------------
  L1                 1.6500      0.01      0.00
  P1                 1.6500      0.01      0.00
  P2                 1.4381      0.01      0.00
  P3                 1.3087      0.01      0.00
  P4                 1.0439      0.01      0.00
  P5                 0.6461      0.00      0.00
   
   
  Node Results at 26:00:00 hrs:
  --------------------------------------------------------
                     Demand      Head  Pressure  Flouride
  Node                  gpm        ft       psi      mg/l
  --------------------------------------------------------
  33                   0.00   1000.00    433.30    0.4029
  i1                   0.20   1000.00    433.30    0.3911
  i2                   0.12   1000.00    433.30    0.2591
  i3                   0.25   1000.00    433.30    0.0455
  i4                   0.37   1000.00    433.30    0.0455
  34                   0.60   1000.00    433.30    0.0456
  src                 -1.54   1000.00      0.00    0.0000  Reservoir
   
   
  Link Results at 26:00:00 hrs:
  ----------------------------------------------
                       Flow  Velocity  Headloss
  Link                  gpm       fps   /1000ft
  ----------------------------------------------
  L1                 1.5400      0.01      0.00
  P1                 1.5400      0.01      0.00
  P2                 1.3422      0.01      0.00
  P3                 1.2215      0.01      0.00
  P4                 0.9743      0.01      0.00
  P5                 0.6030      0.00      0.00
   
   
  Node Results at 27:00:00 hrs:
  --------------------------------------------------------
                     Demand      Head  Pressure  Flouride
  Node                  gpm        ft       psi      mg/l
  --------------------------------------------------------
  33                   0.00   1000.00    433.30    0.4108
  i1                   0.14   1000.00    433.30    0.3782
  i2                   0.09   1000.00    433.30    0.3168
  i3                   0.17   1000.00    433.30    0.0441
  i4                   0.26   1000.00    433.30    0.0441
  34                   0.43   1000.00    433.30    0.0442
  src                 -1.09   1000.00      0.00    0.0000  Reservoir
   
   
  Link Results at 27:00:00 hrs:
  ----------------------------------------------
                       Flow  Velocity  Headloss
  Link                  gpm       fps   /1000ft
  ----------------------------------------------
  L1                 1.0900      0.01      0.00
  P1                 1.0900      0.01      0.00
  P2                 0.9500      0.01      0.00
  P3                 0.8646      0.01      0.00
  P4                 0.6896      0.00      0.00
  P5                 0.4268      0.00      0.00
   
   
  Node Results at 28:00:00 hrs:
  --------------------------------------------------------
                     Demand      Head  Pressure  Flouride
  Node                  gpm        ft       psi      mg/l
  --------------------------------------------------------
  33                   0.00   1000.00    433.30    0.4089
  i1                   0.17   1000.00    433.30    0.3909
  i2                   0.10   1000.00    433.30    0.3414
  i3                   0.21   1000.00    433.30    0.0428
  i4                   0.32   1000.00    433.30    0.0428
  34                   0.52   1000.00    433.30    0.0429
  src                 -1.32   1000.00      0.00    0.0000  Reservoir
   
   
  Link Results at 28:00:00 hrs:
  ----------------------------------------------
                       Flow  Velocity  Headloss
  Link                  gpm       fps   /1000ft
  ----------------------------------------------
  L1                 1.3199      0.01      0.00
  P1                 1.3200      0.01      0.00
  P2                 1.1505      0.01      0.00
  P3                 1.0470      0.01      0.00
  P4                 0.8351      0.01      0.00
  P5                 0.5169      0.00      0.00
   
   
  Node Results at 29:00:00 hrs:
  --------------------------------------------------------
                     Demand      Head  Pressure  Flouride
  Node                  gpm        ft       psi      mg/l
  --------------------------------------------------------
  33                   0.00   1000.00    433.30    0.4016
  i1                   0.20   1000.00    433.30    0.3940
  i2                   0.12   1000.00    433.30    0.3558
  i3                   0.26   1000.00    433.30    0.0415
  i4                   0.38   1000.00    433.30    0.0415
  34                   0.62   1000.00    433.30    0.0416
  src                 -1.59   1000.00      0.00    0.0000  Reservoir
   
   
  Link Results at 29:00:00 hrs:
  ----------------------------------------------
                       Flow  Velocity  Headloss
  Link                  gpm       fps   /1000ft
  ----------------------------------------------
  L1                 1.5900      0.01      0.00
  P1                 1.5900      0.01      0.00
  P2                 1.3858      0.01      0.00
  P3                 1.2612      0.01      0.00
  P4                 1.0059      0.01      0.00
  P5                 0.6226      0.00      0.00
   
   
  Node Results at 30:00:00 hrs:
  --------------------------------------------------------
                     Demand      Head  Pressure  Flouride
  Node                  gpm        ft       psi      mg/l
  --------------------------------------------------------
  33                   0.00   1000.00    433.30    0.0707
  i1                   0.19   1000.00    433.30    0.3809
  i2                   0.12   1000.00    433.30    0.3448
  i3                   0.24   1000.00    433.30    0.2888
  i4                   0.36   1000.00    433.30    0.0403
  34                   0.58   1000.00    433.30    0.0404
  src                 -1.49   1000.00      0.00    0.0000  Reservoir
   
   
  Link Results at 30:00:00 hrs:
  ----------------------------------------------
                       Flow  Velocity  Headloss
  Link                  gpm       fps   /1000ft
  ----------------------------------------------
  L1                 1.4901      0.01      0.00
  P1                 1.4900      0.01      0.00
  P2                 1.2987      0.01      0.00
  P3                 1.1818      0.01      0.00
  P4                 0.9426      0.01      0.00
  P5                 0.5835      0.00      0.00
   
   
  Node Results at 31:00:00 hrs:
  --------------------------------------------------------
                     Demand      Head  Pressure  Flouride
  Node                  gpm        ft       psi      mg/l
  --------------------------------------------------------
  33                   0.00   1000.00    433.30    0.0688
  i1                   0.33   1000.00    433.30    0.0676
  i2                   0.20   1000.00    433.30    0.3557
  i3                   0.41   1000.00    433.30    0.3110
  i4                   0.62   1000.00    433.30    0.0391
  34                   1.01   1000.00    433.30    0.0392
  src                 -2.58   1000.00      0.00    0.0000  Reservoir
   
   
  Link Results at 31:00:00 hrs:
  ----------------------------------------------
                       Flow  Velocity  Headloss
  Link                  gpm       fps   /1000ft
  ----------------------------------------------
  L1                 2.5801      0.02      0.00
  P1                 2.5800      0.02      0.00
  P2                 2.2487      0.01      0.00
  P3                 2.0464      0.01      0.00
  P4                 1.6322      0.01      0.00
  P5                 1.0103      0.01      0.00
   
   
  Node Results at 32:00:00 hrs:
  --------------------------------------------------------
                     Demand      Head  Pressure  Flouride
  Node                  gpm        ft       psi      mg/l
  --------------------------------------------------------
  33                   0.00   1000.00    433.30    0.0669
  i1                   0.22   1000.00    433.30    0.0658
  i2                   0.13   1000.00    433.30    0.3576
  i3                   0.27   1000.00    433.30    0.3237
  i4                   0.40   1000.00    433.30    0.0379
  34                   0.66   1000.00    433.30    0.0380
  src                 -1.68   1000.00      0.00    0.0000  Reservoir
   
   
  Link Results at 32:00:00 hrs:
  ----------------------------------------------
                       Flow  Velocity  Headloss
  Link                  gpm       fps   /1000ft
  ----------------------------------------------
  L1                 1.6800      0.01      0.00
  P1                 1.6800      0.01      0.00
  P2                 1.4643      0.01      0.00
  P3                 1.3325      0.01      0.00
  P4                 1.0629      0.01      0.00
  P5                 0.6579      0.00      0.00
   
   
  Node Results at 33:00:00 hrs:
  --------------------------------------------------------
                     Demand      Head  Pressure  Flouride
  Node                  gpm        ft       psi      mg/l
  --------------------------------------------------------
  33                   0.00   1000.00    433.30    0.0649
  i1                   0.26   1000.00    433.30    0.0639
  i2                   0.16   1000.00    433.30    0.0634
  i3                   0.32   1000.00    433.30    0.3338
  i4                   0.48   1000.00    433.30    0.0368
  34                   0.79   1000.00    433.30    0.0368
  src                 -2.01   1000.00      0.00    0.0000  Reservoir
   
   
  Link Results at 33:00:00 hrs:
  ----------------------------------------------
                       Flow  Velocity  Headloss
  Link                  gpm       fps   /1000ft
  ----------------------------------------------
  L1                 2.0100      0.01      0.00
  P1                 2.0100      0.01      0.00
  P2                 1.7519      0.01      0.00
  P3                 1.5943      0.01      0.00
  P4                 1.2716      0.01      0.00
  P5                 0.7871      0.01      0.00
   
   
  Node Results at 34:00:00 hrs:
  --------------------------------------------------------
                     Demand      Head  Pressure  Flouride
  Node                  gpm        ft       psi      mg/l
  --------------------------------------------------------
  33                   0.00   1000.00    433.30    0.0631
  i1                   0.22   1000.00    433.30    0.0621
  i2                   0.13   1000.00    433.30    0.0616
  i3                   0.27   1000.00    433.30    0.3358
  i4                   0.40   1000.00    433.30    0.2553
  34                   0.66   1000.00    433.30    0.0357
  src                 -1.68   1000.00      0.00    0.0000  Reservoir
   
   
  Link Results at 34:00:00 hrs:
  ----------------------------------------------
                       Flow  Velocity  Headloss
  Link                  gpm       fps   /1000ft
  ----------------------------------------------
  L1                 1.6800      0.01      0.00
  P1                 1.6800      0.01      0.00
  P2                 1.4643      0.01      0.00
  P3                 1.3325      0.01      0.00
  P4                 1.0629      0.01      0.00
  P5                 0.6579      0.00      0.00
   
   
  Node Results at 35:00:00 hrs:
  --------------------------------------------------------
                     Demand      Head  Pressure  Flouride
  Node                  gpm        ft       psi      mg/l
  --------------------------------------------------------
  33                   0.00   1000.00    433.30    0.2651
  i1                   0.19   1000.00    433.30    0.0600
  i2                   0.11   1000.00    433.30    0.0598
  i3                   0.23   1000.00    433.30    0.3254
  i4                   0.35   1000.00    433.30    0.2750
  34                   0.57   1000.00    433.30    0.0346
  src                 -1.45   1000.00      0.00    0.0000  Reservoir
   
   
  Link Results at 35:00:00 hrs:
  ----------------------------------------------
                       Flow  Velocity  Headloss
  Link                  gpm       fps   /1000ft
  ----------------------------------------------
  L1                 1.4501      0.01      0.00
  P1                 1.4500      0.01      0.00
  P2                 1.2638      0.01      0.00
  P3                 1.1501      0.01      0.00
  P4                 0.9173      0.01      0.00
  P5                 0.5678      0.00      0.00
   
   
  Node Results at 36:00:00 hrs:
  --------------------------------------------------------
                     Demand      Head  Pressure  Flouride
  Node                  gpm        ft       psi      mg/l
  --------------------------------------------------------
  33                   0.00   1000.00    433.30    0.3952
  i1                   0.20   1000.00    433.30    0.2522
  i2                   0.12   1000.00    433.30    0.0580
  i3                   0.25   1000.00    433.30    0.0579
  i4                   0.38   1000.00    433.30    0.2866
  34                   0.61   1000.00    433.30    0.0336
  src                 -1.56   1000.00      0.00    0.0000  Reservoir
   
   
  Link Results at 36:00:00 hrs:
  ----------------------------------------------
                       Flow  Velocity  Headloss
  Link                  gpm       fps   /1000ft
  ----------------------------------------------
  L1                 1.5600      0.01      0.00
  P1                 1.5600      0.01      0.00
  P2                 1.3597      0.01      0.00
  P3                 1.2374      0.01      0.00
  P4                 0.9869      0.01      0.00
  P5                 0.6109      0.00      0.00
   
   
  Node Results at 37:00:00 hrs:
  --------------------------------------------------------
                     Demand      Head  Pressure  Flouride
  Node                  gpm        ft       psi      mg/l
  --------------------------------------------------------
  33                   0.00   1000.00    433.30    0.3842
  i1                   0.22   1000.00    433.30    0.3776
  i2                   0.14   1000.00    433.30    0.0562
  i3                   0.28   1000.00    433.30    0.0561
  i4                   0.42   1000.00    433.30    0.2781
  34                   0.68   1000.00    433.30    0.0326
  src                 -1.73   1000.00      0.00    0.0000  Reservoir
   
   
  Link Results at 37:00:00 hrs:
  ----------------------------------------------
                       Flow  Velocity  Headloss
  Link                  gpm       fps   /1000ft
  ----------------------------------------------
  L1                 1.7299      0.01      0.00
  P1                 1.7300      0.01      0.00
  P2                 1.5079      0.01      0.00
  P3                 1.3722      0.01      0.00
  P4                 1.0945      0.01      0.00
  P5                 0.6775      0.00      0.00
   
   
  Node Results at 38:00:00 hrs:
  --------------------------------------------------------
                     Demand      Head  Pressure  Flouride
  Node                  gpm        ft       psi      mg/l
  --------------------------------------------------------
  33                   0.00   1000.00    433.30    0.4116
  i1                   0.18   1000.00    433.30    0.3650
  i2                   0.11   1000.00    433.30    0.2369
  i3                   0.22   1000.00    433.30    0.0544
  i4                   0.33   1000.00    433.30    0.2867
  34                   0.54   1000.00    433.30    0.0316
  src                 -1.37   1000.00      0.00    0.0000  Reservoir
   
   
  Link Results at 38:00:00 hrs:
  ----------------------------------------------
                       Flow  Velocity  Headloss
  Link                  gpm       fps   /1000ft
  ----------------------------------------------
  L1                 1.3700      0.01      0.00
  P1                 1.3700      0.01      0.00
  P2                 1.1941      0.01      0.00
  P3                 1.0867      0.01      0.00
  P4                 0.8667      0.01      0.00
  P5                 0.5365      0.00      0.00
   
   
  Node Results at 39:00:00 hrs:
  --------------------------------------------------------
                     Demand      Head  Pressure  Flouride
  Node                  gpm        ft       psi      mg/l
  --------------------------------------------------------
  33                   0.00   1000.00    433.30    0.0870
  i1                   0.12   1000.00    433.30    0.3916
  i2                   0.07   1000.00    433.30    0.2297
  i3                   0.15   1000.00    433.30    0.0527
  i4                   0.22   1000.00    433.30    0.2885
  34                   0.36   1000.00    433.30    0.2197
  src                 -0.92   1000.00      0.00    0.0000  Reservoir
   
   
  Link Results at 39:00:00 hrs:
  ----------------------------------------------
                       Flow  Velocity  Headloss
  Link                  gpm       fps   /1000ft
  ----------------------------------------------
  L1                 0.9199      0.01      0.00
  P1                 0.9200      0.01      0.00
  P2                 0.8019      0.01      0.00
  P3                 0.7297      0.00      0.00
  P4                 0.5820      0.00      0.00
  P5                 0.3603      0.00      0.00
   
   
  Node Results at 40:00:00 hrs:
  --------------------------------------------------------
                     Demand      Head  Pressure  Flouride
  Node                  gpm        ft       psi      mg/l
  --------------------------------------------------------
  33                   0.00   1000.00    433.30    0.0846
  i1                   0.13   1000.00    433.30    0.0831
  i2                   0.08   1000.00    433.30    0.3433
  i3                   0.16   1000.00    433.30    0.0512
  i4                   0.25   1000.00    433.30    0.2802
  34                   0.40   1000.00    433.30    0.2135
  src                 -1.02   1000.00      0.00    0.0000  Reservoir
   
   
  Link Results at 40:00:00 hrs:
  ----------------------------------------------
                       Flow  Velocity  Headloss
  Link                  gpm       fps   /1000ft
  ----------------------------------------------
  L1                 1.0201      0.01      0.00
  P1                 1.0200      0.01      0.00
  P2                 0.8890      0.01      0.00
  P3                 0.8090      0.01      0.00
  P4                 0.6453      0.00      0.00
  P5                 0.3994      0.00      0.00
   
   
  Node Results at 41:00:00 hrs:
  --------------------------------------------------------
                     Demand      Head  Pressure  Flouride
  Node                  gpm        ft       psi      mg/l
  --------------------------------------------------------
  33                   0.00   1000.00    433.30    0.0823
  i1                   0.09   1000.00    433.30    0.0807
  i2                   0.05   1000.00    433.30    0.3330
  i3                   0.11   1000.00    433.30    0.0496
  i4                   0.17   1000.00    433.30    0.0498
  34                   0.27   1000.00    433.30    0.2299
  src                 -0.69   1000.00      0.00    0.0000  Reservoir
   
   
  Link Results at 41:00:00 hrs:
  ----------------------------------------------
                       Flow  Velocity  Headloss
  Link                  gpm       fps   /1000ft
  ----------------------------------------------
  L1                 0.6900      0.00      0.00
  P1                 0.6900      0.00      0.00
  P2                 0.6014      0.00      0.00
  P3                 0.5473      0.00      0.00
  P4                 0.4365      0.00      0.00
  P5                 0.2702      0.00      0.00
   
   
  Node Results at 42:00:00 hrs:
  --------------------------------------------------------
                     Demand      Head  Pressure  Flouride
  Node                  gpm        ft       psi      mg/l
  --------------------------------------------------------
  33                   0.00   1000.00    433.30    0.0800
  i1                   0.10   1000.00    433.30    0.0784
  i2                   0.06   1000.00    433.30    0.3233
  i3                   0.12   1000.00    433.30    0.0482
  i4                   0.19   1000.00    433.30    0.0483
  34                   0.30   1000.00    433.30    0.2234
  src                 -0.77   1000.00      0.00    0.0000  Reservoir
   
   
  Link Results at 42:00:00 hrs:
  ----------------------------------------------
                       Flow  Velocity  Headloss
  Link                  gpm       fps   /1000ft
  ----------------------------------------------
  L1                 0.7700      0.00      0.00
  P1                 0.7700      0.00      0.00
  P2                 0.6711      0.00      0.00
  P3                 0.6107      0.00      0.00
  P4                 0.4871      0.00      0.00
  P5                 0.3015      0.00      0.00
   
   
  Node Results at 43:00:00 hrs:
  --------------------------------------------------------
                     Demand      Head  Pressure  Flouride
  Node                  gpm        ft       psi      mg/l
  --------------------------------------------------------
  33                   0.00   1000.00    433.30    0.0779
  i1                   0.14   1000.00    433.30    0.0762
  i2                   0.09   1000.00    433.30    0.3474
  i3                   0.18   1000.00    433.30    0.2038
  i4                   0.27   1000.00    433.30    0.0470
  34                   0.43   1000.00    433.30    0.2332
  src                 -1.11   1000.00      0.00    0.0000  Reservoir
   
   
  Link Results at 43:00:00 hrs:
  ----------------------------------------------
                       Flow  Velocity  Headloss
  Link                  gpm       fps   /1000ft
  ----------------------------------------------
  L1                 1.1099      0.01      0.00
  P1                 1.1100      0.01      0.00
  P2                 0.9675      0.01      0.00
  P3                 0.8804      0.01      0.00
  P4                 0.7022      0.00      0.00
  P5                 0.4347      0.00      0.00
   
   
  Node Results at 44:00:00 hrs:
  --------------------------------------------------------
                     Demand      Head  Pressure  Flouride
  Node                  gpm        ft       psi      mg/l
  --------------------------------------------------------
  33                   0.00   1000.00    433.30    0.0758
  i1                   0.22   1000.00    433.30    0.0742
  i2                   0.13   1000.00    433.30    0.3369
  i3                   0.27   1000.00    433.30    0.1977
  i4                   0.40   1000.00    433.30    0.0456
  34                   0.66   1000.00    433.30    0.2264
  src                 -1.68   1000.00      0.00    0.0000  Reservoir
   
   
  Link Results at 44:00:00 hrs:
  ----------------------------------------------
                       Flow  Velocity  Headloss
  Link                  gpm       fps   /1000ft
  ----------------------------------------------
  L1                 1.6800      0.01      0.00
  P1                 1.6800      0.01      0.00
  P2                 1.4643      0.01      0.00
  P3                 1.3325      0.01      0.00
  P4                 1.0629      0.01      0.00
  P5                 0.6579      0.00      0.00
   
   
  Node Results at 45:00:00 hrs:
  --------------------------------------------------------
                     Demand      Head  Pressure  Flouride
  Node                  gpm        ft       psi      mg/l
  --------------------------------------------------------
  33                   0.00   1000.00    433.30    0.0738
  i1                   0.26   1000.00    433.30    0.0724
  i2                   0.16   1000.00    433.30    0.0716
  i3                   0.32   1000.00    433.30    0.2951
  i4                   0.48   1000.00    433.30    0.0442
  34                   0.79   1000.00    433.30    0.2335
  src                 -2.01   1000.00      0.00    0.0000  Reservoir
   
   
  Link Results at 45:00:00 hrs:
  ----------------------------------------------
                       Flow  Velocity  Headloss
  Link                  gpm       fps   /1000ft
  ----------------------------------------------
  L1                 2.0100      0.01      0.00
  P1                 2.0100      0.01      0.00
  P2                 1.7519      0.01      0.00
  P3                 1.5943      0.01      0.00
  P4                 1.2716      0.01      0.00
  P5                 0.7871      0.01      0.00
   
   
  Node Results at 46:00:00 hrs:
  --------------------------------------------------------
                     Demand      Head  Pressure  Flouride
  Node                  gpm        ft       psi      mg/l
  --------------------------------------------------------
  33                   0.00   1000.00    433.30    0.0717
  i1                   0.24   1000.00    433.30    0.0705
  i2                   0.15   1000.00    433.30    0.0696
  i3                   0.30   1000.00    433.30    0.3163
  i4                   0.46   1000.00    433.30    0.0429
  34                   0.74   1000.00    433.30    0.2348
  src                 -1.89   1000.00      0.00    0.0000  Reservoir
   
   
  Link Results at 46:00:00 hrs:
  ----------------------------------------------
                       Flow  Velocity  Headloss
  Link                  gpm       fps   /1000ft
  ----------------------------------------------
  L1                 1.8901      0.01      0.00
  P1                 1.8900      0.01      0.00
  P2                 1.6473      0.01      0.00
  P3                 1.4991      0.01      0.00
  P4                 1.1957      0.01      0.00
  P5                 0.7401      0.00      0.00
   
   
  Node Results at 47:00:00 hrs:
  --------------------------------------------------------
                     Demand      Head  Pressure  Flouride
  Node                  gpm        ft       psi      mg/l
  --------------------------------------------------------
  33                   0.00   1000.00    433.30    0.0697
  i1                   0.19   1000.00    433.30    0.0685
  i2                   0.11   1000.00    433.30    0.0677
  i3                   0.23   1000.00    433.30    0.0674
  i4                   0.35   1000.00    433.30    0.0416
  34                   0.57   1000.00    433.30    0.0416
  src                 -1.45   1000.00      0.00    0.0000  Reservoir
   
   
  Link Results at 47:00:00 hrs:
  ----------------------------------------------
                       Flow  Velocity  Headloss
  Link                  gpm       fps   /1000ft
  ----------------------------------------------
  L1                 1.4499      0.01      0.00
  P1                 1.4500      0.01      0.00
  P2                 1.2638      0.01      0.00
  P3                 1.1501      0.01      0.00
  P4                 0.9173      0.01      0.00
  P5                 0.5678      0.00      0.00
   
   
  Node Results at 48:00:00 hrs:
  --------------------------------------------------------
                     Demand      Head  Pressure  Flouride
  Node                  gpm        ft       psi      mg/l
  --------------------------------------------------------
  33                   0.00   1000.00    433.30    0.3277
  i1                   0.16   1000.00    433.30    0.0663
  i2                   0.10   1000.00    433.30    0.0658
  i3                   0.20   1000.00    433.30    0.0654
  i4                   0.30   1000.00    433.30    0.1752
  34                   0.48   1000.00    433.30    0.0404
  src                 -1.23   1000.00      0.00    0.0000  Reservoir
   
   
  Link Results at 48:00:00 hrs:
  ----------------------------------------------
                       Flow  Velocity  Headloss
  Link                  gpm       fps   /1000ft
  ----------------------------------------------
  L1                 1.2300      0.01      0.00
  P1                 1.2300      0.01      0.00
  P2                 1.0721      0.01      0.00
  P3                 0.9756      0.01      0.00
  P4                 0.7782      0.00      0.00
  P5                 0.4817      0.00      0.00
   
   
  Node Results at 49:00:00 hrs:
  --------------------------------------------------------
                     Demand      Head  Pressure  Flouride
  Node                  gpm        ft       psi      mg/l
  --------------------------------------------------------
  33                   0.00   1000.00    433.30    0.3898
  i1                   0.26   1000.00    433.30    0.3119
  i2                   0.16   1000.00    433.30    0.0639
  i3                   0.33   1000.00    433.30    0.0636
  i4                   0.49   1000.00    433.30    0.2613
  34                   0.80   1000.00    433.30    0.0392
  src                 -2.05   1000.00      0.00    0.0000  Reservoir
   
   
  Link Results at 49:00:00 hrs:
  ----------------------------------------------
                       Flow  Velocity  Headloss
  Link                  gpm       fps   /1000ft
  ----------------------------------------------
  L1                 2.0500      0.01      0.00
  P1                 2.0500      0.01      0.00
  P2                 1.7868      0.01      0.00
  P3                 1.6260      0.01      0.00
  P4                 1.2969      0.01      0.00
  P5                 0.8028      0.01      0.00
   
   
  Node Results at 50:00:00 hrs:
  --------------------------------------------------------
                     Demand      Head  Pressure  Flouride
  Node                  gpm        ft       psi      mg/l
  --------------------------------------------------------
  33                   0.00   1000.00    433.30    0.3939
  i1                   0.20   1000.00    433.30    0.3874
  i2                   0.12   1000.00    433.30    0.0618
  i3                   0.25   1000.00    433.30    0.0617
  i4                   0.37   1000.00    433.30    0.2534
  34                   0.60   1000.00    433.30    0.0380
  src                 -1.54   1000.00      0.00    0.0000  Reservoir
   
   
  Link Results at 50:00:00 hrs:
  ----------------------------------------------
                       Flow  Velocity  Headloss
  Link                  gpm       fps   /1000ft
  ----------------------------------------------
  L1                 1.5400      0.01      0.00
  P1                 1.5400      0.01      0.00
  P2                 1.3422      0.01      0.00
  P3                 1.2215      0.01      0.00
  P4                 0.9743      0.01      0.00
  P5                 0.6030      0.00      0.00
   
   
  Node Results at 51:00:00 hrs:
  --------------------------------------------------------
                     Demand      Head  Pressure  Flouride
  Node                  gpm        ft       psi      mg/l
  --------------------------------------------------------
  33                   0.00   1000.00    433.30    0.4121
  i1                   0.16   1000.00    433.30    0.3746
  i2                   0.10   1000.00    433.30    0.2928
  i3                   0.20   1000.00    433.30    0.0598
  i4                   0.29   1000.00    433.30    0.2717
  34                   0.48   1000.00    433.30    0.0369
  src                 -1.22   1000.00      0.00    0.0000  Reservoir
   
   
  Link Results at 51:00:00 hrs:
  ----------------------------------------------
                       Flow  Velocity  Headloss
  Link                  gpm       fps   /1000ft
  ----------------------------------------------
  L1                 1.2199      0.01      0.00
  P1                 1.2200      0.01      0.00
  P2                 1.0633      0.01      0.00
  P3                 0.9677      0.01      0.00
  P4                 0.7718      0.00      0.00
  P5                 0.4777      0.00      0.00
   
   
  Node Results at 52:00:00 hrs:
  --------------------------------------------------------
                     Demand      Head  Pressure  Flouride
  Node                  gpm        ft       psi      mg/l
  --------------------------------------------------------
  33                   0.00   1000.00    433.30    0.4108
  i1                   0.17   1000.00    433.30    0.3952
  i2                   0.10   1000.00    433.30    0.2839
  i3                   0.21   1000.00    433.30    0.0580
  i4                   0.32   1000.00    433.30    0.0580
  34                   0.52   1000.00    433.30    0.0358
  src                 -1.32   1000.00      0.00    0.0000  Reservoir
   
   
  Link Results at 52:00:00 hrs:
  ----------------------------------------------
                       Flow  Velocity  Headloss
  Link                  gpm       fps   /1000ft
  ----------------------------------------------
  L1                 1.3200      0.01      0.00
  P1                 1.3200      0.01      0.00
  P2                 1.1505      0.01      0.00
  P3                 1.0470      0.01      0.00
  P4                 0.8351      0.01      0.00
  P5                 0.5169      0.00      0.00
   
   
  Node Results at 53:00:00 hrs:
  --------------------------------------------------------
                     Demand      Head  Pressure  Flouride
  Node                  gpm        ft       psi      mg/l
  --------------------------------------------------------
  33                   0.00   1000.00    433.30    0.4006
  i1                   0.16   1000.00    433.30    0.3943
  i2                   0.10   1000.00    433.30    0.3379
  i3                   0.20   1000.00    433.30    0.0562
  i4                   0.29   1000.00    433.30    0.0563
  34                   0.48   1000.00    433.30    0.0845
  src                 -1.22   1000.00      0.00    0.0000  Reservoir
   
   
  Link Results at 53:00:00 hrs:
  ----------------------------------------------
                       Flow  Velocity  Headloss
  Link                  gpm       fps   /1000ft
  ----------------------------------------------
  L1                 1.2201      0.01      0.00
  P1                 1.2200      0.01      0.00
  P2                 1.0633      0.01      0.00
  P3                 0.9677      0.01      0.00
  P4                 0.7718      0.00      0.00
  P5                 0.4777      0.00      0.00
   
   
  Node Results at 54:00:00 hrs:
  --------------------------------------------------------
                     Demand      Head  Pressure  Flouride
  Node                  gpm        ft       psi      mg/l
  --------------------------------------------------------
  33                   0.00   1000.00    433.30    0.3813
  i1                   0.16   1000.00    433.30    0.3815
  i2                   0.10   1000.00    433.30    0.3417
  i3                   0.20   1000.00    433.30    0.0545
  i4                   0.29   1000.00    433.30    0.0546
  34                   0.48   1000.00    433.30    0.1465
  src                 -1.22   1000.00      0.00    0.0000  Reservoir
   
   
  Link Results at 54:00:00 hrs:
  ----------------------------------------------
                       Flow  Velocity  Headloss
  Link                  gpm       fps   /1000ft
  ----------------------------------------------
  L1                 1.2199      0.01      0.00
  P1                 1.2200      0.01      0.00
  P2                 1.0633      0.01      0.00
  P3                 0.9677      0.01      0.00
  P4                 0.7718      0.00      0.00
  P5                 0.4777      0.00      0.00
   
   
  Node Results at 55:00:00 hrs:
  --------------------------------------------------------
                     Demand      Head  Pressure  Flouride
  Node                  gpm        ft       psi      mg/l
  --------------------------------------------------------
  33                   0.00   1000.00    433.30    0.0863
  i1                   0.24   1000.00    433.30    0.3630
  i2                   0.15   1000.00    433.30    0.3600
  i3                   0.30   1000.00    433.30    0.2589
  i4                   0.46   1000.00    433.30    0.0530
  34                   0.74   1000.00    433.30    0.2183
  src                 -1.89   1000.00      0.00    0.0000  Reservoir
   
   
  Link Results at 55:00:00 hrs:
  ----------------------------------------------
                       Flow  Velocity  Headloss
  Link                  gpm       fps   /1000ft
  ----------------------------------------------
  L1                 1.8900      0.01      0.00
  P1                 1.8900      0.01      0.00
  P2                 1.6473      0.01      0.00
  P3                 1.4991      0.01      0.00
  P4                 1.1957      0.01      0.00
  P5                 0.7401      0.00      0.00
   
  Analysis ended Mon Jul 29 13:18:06 2019
