  Page 1                                    Mon Sep 02 15:24:55 2019

  ******************************************************************
  *                           E P A N E T                          *
  *                   Hydraulic and Water Quality                  *
  *                   Analysis for Pipe Networks                   *
  *                         Version 2.2                            *
  ******************************************************************
  
  Analysis begun Mon Sep 02 15:24:55 2019

   
  Node Results at 0:00:00 hrs:
  --------------------------------------------------------
                     Demand      Head  Pressure  Flouride
  Node                  gpm        ft       psi      mg/l
  --------------------------------------------------------
  8                    0.00   1000.00    433.30    1.0000
  i1                   0.30   1000.00    433.30    1.0000
  i2                   0.69   1000.00    433.30    1.0000
  i3                   0.55   1000.00    433.30    1.0000
  i4                   0.68   1000.00    433.30    1.0000
  i5                   0.94   1000.00    433.30    1.0000
  i6                   0.88   1000.00    433.30    1.0000
  10                   2.25   1000.00    433.30    1.0000
  src                 -6.30   1000.00      0.00    0.0000  Reservoir
   
   
  Link Results at 0:00:00 hrs:
  ----------------------------------------------
                       Flow  Velocity  Headloss
  Link                  gpm       fps   /1000ft
  ----------------------------------------------
  L1                 6.3000      0.04      0.00
  P1                 6.3000      0.04      0.00
  P2                 5.9956      0.04      0.00
  P3                 5.3048      0.03      0.00
  P4                 4.7511      0.03      0.00
  P5                 4.0740      0.03      0.00
  P6                 3.1339      0.02      0.00
  P7                 2.2540      0.01      0.00
   
   
  Node Results at 1:00:00 hrs:
  --------------------------------------------------------
                     Demand      Head  Pressure  Flouride
  Node                  gpm        ft       psi      mg/l
  --------------------------------------------------------
  8                    0.00   1000.00    433.30    1.0000
  i1                   0.25   1000.00    433.30    1.0000
  i2                   0.57   1000.00    433.30    1.0000
  i3                   0.46   1000.00    433.30    1.0000
  i4                   0.56   1000.00    433.30    1.0000
  i5                   0.78   1000.00    433.30    1.0000
  i6                   0.73   1000.00    433.30    1.0000
  10                   1.86   1000.00    433.30    1.0000
  src                 -5.20   1000.00      0.00    0.0000  Reservoir
   
   
  Link Results at 1:00:00 hrs:
  ----------------------------------------------
                       Flow  Velocity  Headloss
  Link                  gpm       fps   /1000ft
  ----------------------------------------------
  L1                 5.2000      0.03      0.00
  P1                 5.2000      0.03      0.00
  P2                 4.9488      0.03      0.00
  P3                 4.3786      0.03      0.00
  P4                 3.9215      0.03      0.00
  P5                 3.3627      0.02      0.00
  P6                 2.5867      0.02      0.00
  P7                 1.8605      0.01      0.00
   
   
  Node Results at 2:00:00 hrs:
  --------------------------------------------------------
                     Demand      Head  Pressure  Flouride
  Node                  gpm        ft       psi      mg/l
  --------------------------------------------------------
  8                    0.00   1000.00    433.30    1.0000
  i1                   0.23   1000.00    433.30    1.0000
  i2                   0.53   1000.00    433.30    1.0000
  i3                   0.43   1000.00    433.30    1.0000
  i4                   0.52   1000.00    433.30    1.0000
  i5                   0.72   1000.00    433.30    1.0000
  i6                   0.68   1000.00    433.30    1.0000
  10                   1.74   1000.00    433.30    1.0000
  src                 -4.85   1000.00      0.00    0.0000  Reservoir
   
   
  Link Results at 2:00:00 hrs:
  ----------------------------------------------
                       Flow  Velocity  Headloss
  Link                  gpm       fps   /1000ft
  ----------------------------------------------
  L1                 4.8500      0.03      0.00
  P1                 4.8500      0.03      0.00
  P2                 4.6157      0.03      0.00
  P3                 4.0838      0.03      0.00
  P4                 3.6576      0.02      0.00
  P5                 3.1363      0.02      0.00
  P6                 2.4126      0.02      0.00
  P7                 1.7352      0.01      0.00
   
   
  Node Results at 3:00:00 hrs:
  --------------------------------------------------------
                     Demand      Head  Pressure  Flouride
  Node                  gpm        ft       psi      mg/l
  --------------------------------------------------------
  8                    0.00   1000.00    433.30    1.0000
  i1                   0.23   1000.00    433.30    1.0000
  i2                   0.53   1000.00    433.30    1.0000
  i3                   0.43   1000.00    433.30    1.0000
  i4                   0.52   1000.00    433.30    1.0000
  i5                   0.72   1000.00    433.30    1.0000
  i6                   0.68   1000.00    433.30    1.0000
  10                   1.74   1000.00    433.30    1.0000
  src                 -4.85   1000.00      0.00    0.0000  Reservoir
   
   
  Link Results at 3:00:00 hrs:
  ----------------------------------------------
                       Flow  Velocity  Headloss
  Link                  gpm       fps   /1000ft
  ----------------------------------------------
  L1                 4.8501      0.03      0.00
  P1                 4.8500      0.03      0.00
  P2                 4.6157      0.03      0.00
  P3                 4.0838      0.03      0.00
  P4                 3.6576      0.02      0.00
  P5                 3.1363      0.02      0.00
  P6                 2.4126      0.02      0.00
  P7                 1.7352      0.01      0.00
   
   
  Node Results at 4:00:00 hrs:
  --------------------------------------------------------
                     Demand      Head  Pressure  Flouride
  Node                  gpm        ft       psi      mg/l
  --------------------------------------------------------
  8                    0.00   1000.00    433.30    1.0000
  i1                   0.21   1000.00    433.30    1.0000
  i2                   0.49   1000.00    433.30    1.0000
  i3                   0.39   1000.00    433.30    1.0000
  i4                   0.48   1000.00    433.30    1.0000
  i5                   0.66   1000.00    433.30    1.0000
  i6                   0.62   1000.00    433.30    1.0000
  10                   1.59   1000.00    433.30    1.0000
  src                 -4.45   1000.00      0.00    0.0000  Reservoir
   
   
  Link Results at 4:00:00 hrs:
  ----------------------------------------------
                       Flow  Velocity  Headloss
  Link                  gpm       fps   /1000ft
  ----------------------------------------------
  L1                 4.4500      0.03      0.00
  P1                 4.4500      0.03      0.00
  P2                 4.2350      0.03      0.00
  P3                 3.7470      0.02      0.00
  P4                 3.3559      0.02      0.00
  P5                 2.8777      0.02      0.00
  P6                 2.2136      0.01      0.00
  P7                 1.5921      0.01      0.00
   
   
  Node Results at 5:00:00 hrs:
  --------------------------------------------------------
                     Demand      Head  Pressure  Flouride
  Node                  gpm        ft       psi      mg/l
  --------------------------------------------------------
  8                    0.00   1000.00    433.30    1.0000
  i1                   0.29   1000.00    433.30    1.0000
  i2                   0.65   1000.00    433.30    1.0000
  i3                   0.52   1000.00    433.30    1.0000
  i4                   0.64   1000.00    433.30    1.0000
  i5                   0.89   1000.00    433.30    1.0000
  i6                   0.83   1000.00    433.30    1.0000
  10                   2.13   1000.00    433.30    1.0000
  src                 -5.95   1000.00      0.00    0.0000  Reservoir
   
   
  Link Results at 5:00:00 hrs:
  ----------------------------------------------
                       Flow  Velocity  Headloss
  Link                  gpm       fps   /1000ft
  ----------------------------------------------
  L1                 5.9500      0.04      0.00
  P1                 5.9500      0.04      0.00
  P2                 5.6626      0.04      0.00
  P3                 5.0101      0.03      0.00
  P4                 4.4871      0.03      0.00
  P5                 3.8477      0.02      0.00
  P6                 2.9598      0.02      0.00
  P7                 2.1288      0.01      0.00
   
   
  Node Results at 6:00:00 hrs:
  --------------------------------------------------------
                     Demand      Head  Pressure  Flouride
  Node                  gpm        ft       psi      mg/l
  --------------------------------------------------------
  8                    0.00   1000.00    433.30    1.0000
  i1                   0.31   1000.00    433.30    1.0000
  i2                   0.70   1000.00    433.30    1.0000
  i3                   0.56   1000.00    433.30    1.0000
  i4                   0.69   1000.00    433.30    1.0000
  i5                   0.96   1000.00    433.30    1.0000
  i6                   0.89   1000.00    433.30    1.0000
  10                   2.29   1000.00    433.30    1.0000
  src                 -6.40   1000.00      0.00    0.0000  Reservoir
   
   
  Link Results at 6:00:00 hrs:
  ----------------------------------------------
                       Flow  Velocity  Headloss
  Link                  gpm       fps   /1000ft
  ----------------------------------------------
  L1                 6.3999      0.04      0.00
  P1                 6.4000      0.04      0.00
  P2                 6.0908      0.04      0.00
  P3                 5.3890      0.03      0.00
  P4                 4.8265      0.03      0.00
  P5                 4.1387      0.03      0.00
  P6                 3.1836      0.02      0.00
  P7                 2.2898      0.01      0.00
   
   
  Node Results at 7:00:00 hrs:
  --------------------------------------------------------
                     Demand      Head  Pressure  Flouride
  Node                  gpm        ft       psi      mg/l
  --------------------------------------------------------
  8                    0.00   1000.00    433.30    1.0000
  i1                   0.16   1000.00    433.30    1.0000
  i2                   0.37   1000.00    433.30    1.0000
  i3                   0.29   1000.00    433.30    1.0000
  i4                   0.36   1000.00    433.30    1.0000
  i5                   0.50   1000.00    433.30    1.0000
  i6                   0.47   1000.00    433.30    1.0000
  10                   1.20   1000.00    433.30    1.0000
  src                 -3.35   1000.00      0.00    0.0000  Reservoir
   
   
  Link Results at 7:00:00 hrs:
  ----------------------------------------------
                       Flow  Velocity  Headloss
  Link                  gpm       fps   /1000ft
  ----------------------------------------------
  L1                 3.3501      0.02      0.00
  P1                 3.3500      0.02      0.00
  P2                 3.1882      0.02      0.00
  P3                 2.8208      0.02      0.00
  P4                 2.5264      0.02      0.00
  P5                 2.1663      0.01      0.00
  P6                 1.6664      0.01      0.00
  P7                 1.1986      0.01      0.00
   
   
  Node Results at 8:00:00 hrs:
  --------------------------------------------------------
                     Demand      Head  Pressure  Flouride
  Node                  gpm        ft       psi      mg/l
  --------------------------------------------------------
  8                    0.00   1000.00    433.30    1.0000
  i1                   0.16   1000.00    433.30    1.0000
  i2                   0.37   1000.00    433.30    1.0000
  i3                   0.29   1000.00    433.30    1.0000
  i4                   0.36   1000.00    433.30    1.0000
  i5                   0.50   1000.00    433.30    1.0000
  i6                   0.47   1000.00    433.30    1.0000
  10                   1.20   1000.00    433.30    1.0000
  src                 -3.35   1000.00      0.00    0.0000  Reservoir
   
   
  Link Results at 8:00:00 hrs:
  ----------------------------------------------
                       Flow  Velocity  Headloss
  Link                  gpm       fps   /1000ft
  ----------------------------------------------
  L1                 3.3500      0.02      0.00
  P1                 3.3500      0.02      0.00
  P2                 3.1882      0.02      0.00
  P3                 2.8208      0.02      0.00
  P4                 2.5264      0.02      0.00
  P5                 2.1663      0.01      0.00
  P6                 1.6664      0.01      0.00
  P7                 1.1986      0.01      0.00
   
   
  Node Results at 9:00:00 hrs:
  --------------------------------------------------------
                     Demand      Head  Pressure  Flouride
  Node                  gpm        ft       psi      mg/l
  --------------------------------------------------------
  8                    0.00   1000.00    433.30    1.0000
  i1                   0.32   1000.00    433.30    1.0000
  i2                   0.73   1000.00    433.30    1.0000
  i3                   0.59   1000.00    433.30    1.0000
  i4                   0.72   1000.00    433.30    1.0000
  i5                   1.00   1000.00    433.30    1.0000
  i6                   0.94   1000.00    433.30    1.0000
  10                   2.40   1000.00    433.30    1.0000
  src                 -6.70   1000.00      0.00    0.0000  Reservoir
   
   
  Link Results at 9:00:00 hrs:
  ----------------------------------------------
                       Flow  Velocity  Headloss
  Link                  gpm       fps   /1000ft
  ----------------------------------------------
  L1                 6.6999      0.04      0.00
  P1                 6.7000      0.04      0.00
  P2                 6.3763      0.04      0.00
  P3                 5.6416      0.04      0.00
  P4                 5.0527      0.03      0.00
  P5                 4.3327      0.03      0.00
  P6                 3.3328      0.02      0.00
  P7                 2.3971      0.02      0.00
   
   
  Node Results at 10:00:00 hrs:
  --------------------------------------------------------
                     Demand      Head  Pressure  Flouride
  Node                  gpm        ft       psi      mg/l
  --------------------------------------------------------
  8                    0.00   1000.00    433.30    1.0000
  i1                   0.59   1000.00    433.30    1.0000
  i2                   1.35   1000.00    433.30    1.0000
  i3                   1.08   1000.00    433.30    1.0000
  i4                   1.32   1000.00    433.30    1.0000
  i5                   1.84   1000.00    433.30    1.0000
  i6                   1.72   1000.00    433.30    1.0000
  10                   4.40   1000.00    433.30    1.0000
  src                -12.30   1000.00      0.00    0.0000  Reservoir
   
   
  Link Results at 10:00:00 hrs:
  ----------------------------------------------
                       Flow  Velocity  Headloss
  Link                  gpm       fps   /1000ft
  ----------------------------------------------
  L1                12.3000      0.08      0.00
  P1                12.3000      0.08      0.00
  P2                11.7058      0.07      0.00
  P3                10.3570      0.07      0.00
  P4                 9.2759      0.06      0.00
  P5                 7.9540      0.05      0.00
  P6                 6.1185      0.04      0.00
  P7                 4.4007      0.03      0.00
   
   
  Node Results at 11:00:00 hrs:
  --------------------------------------------------------
                     Demand      Head  Pressure  Flouride
  Node                  gpm        ft       psi      mg/l
  --------------------------------------------------------
  8                    0.00   1000.00    433.30    0.9840
  i1                   0.23   1000.00    433.30    0.9840
  i2                   0.53   1000.00    433.30    0.9998
  i3                   0.43   1000.00    433.30    0.9999
  i4                   0.52   1000.00    433.30    1.0000
  i5                   0.72   1000.00    433.30    1.0000
  i6                   0.68   1000.00    433.30    1.0000
  10                   1.74   1000.00    433.30    1.0000
  src                 -4.85   1000.00      0.00    0.0000  Reservoir
   
   
  Link Results at 11:00:00 hrs:
  ----------------------------------------------
                       Flow  Velocity  Headloss
  Link                  gpm       fps   /1000ft
  ----------------------------------------------
  L1                 4.8500      0.03      0.00
  P1                 4.8500      0.03      0.00
  P2                 4.6157      0.03      0.00
  P3                 4.0838      0.03      0.00
  P4                 3.6576      0.02      0.00
  P5                 3.1363      0.02      0.00
  P6                 2.4126      0.02      0.00
  P7                 1.7352      0.01      0.00
   
   
  Node Results at 12:00:00 hrs:
  --------------------------------------------------------
                     Demand      Head  Pressure  Flouride
  Node                  gpm        ft       psi      mg/l
  --------------------------------------------------------
  8                    0.00   1000.00    433.30    1.0323
  i1                   0.22   1000.00    433.30    0.9840
  i2                   0.50   1000.00    433.30    0.9998
  i3                   0.40   1000.00    433.30    0.9999
  i4                   0.49   1000.00    433.30    0.9999
  i5                   0.69   1000.00    433.30    1.0000
  i6                   0.64   1000.00    433.30    1.0000
  10                   1.65   1000.00    433.30    1.0000
  src                 -4.60   1000.00      0.00    0.0000  Reservoir
   
   
  Link Results at 12:00:00 hrs:
  ----------------------------------------------
                       Flow  Velocity  Headloss
  Link                  gpm       fps   /1000ft
  ----------------------------------------------
  L1                 4.6000      0.03      0.00
  P1                 4.6000      0.03      0.00
  P2                 4.3778      0.03      0.00
  P3                 3.8733      0.02      0.00
  P4                 3.4690      0.02      0.00
  P5                 2.9747      0.02      0.00
  P6                 2.2882      0.01      0.00
  P7                 1.6458      0.01      0.00
   
   
  Node Results at 13:00:00 hrs:
  --------------------------------------------------------
                     Demand      Head  Pressure  Flouride
  Node                  gpm        ft       psi      mg/l
  --------------------------------------------------------
  8                    0.00   1000.00    433.30    0.7944
  i1                   0.16   1000.00    433.30    1.0323
  i2                   0.37   1000.00    433.30    0.9840
  i3                   0.30   1000.00    433.30    0.9999
  i4                   0.37   1000.00    433.30    0.9999
  i5                   0.51   1000.00    433.30    1.0000
  i6                   0.47   1000.00    433.30    1.0000
  10                   1.22   1000.00    433.30    1.0000
  src                 -3.40   1000.00      0.00    0.0000  Reservoir
   
   
  Link Results at 13:00:00 hrs:
  ----------------------------------------------
                       Flow  Velocity  Headloss
  Link                  gpm       fps   /1000ft
  ----------------------------------------------
  L1                 3.4001      0.02      0.00
  P1                 3.4000      0.02      0.00
  P2                 3.2357      0.02      0.00
  P3                 2.8629      0.02      0.00
  P4                 2.5641      0.02      0.00
  P5                 2.1987      0.01      0.00
  P6                 1.6913      0.01      0.00
  P7                 1.2165      0.01      0.00
   
   
  Node Results at 14:00:00 hrs:
  --------------------------------------------------------
                     Demand      Head  Pressure  Flouride
  Node                  gpm        ft       psi      mg/l
  --------------------------------------------------------
  8                    0.00   1000.00    433.30    0.6942
  i1                   0.35   1000.00    433.30    1.0323
  i2                   0.78   1000.00    433.30    0.9840
  i3                   0.63   1000.00    433.30    0.9840
  i4                   0.77   1000.00    433.30    0.9998
  i5                   1.07   1000.00    433.30    0.9999
  i6                   1.00   1000.00    433.30    1.0000
  10                   2.56   1000.00    433.30    1.0000
  src                 -7.15   1000.00      0.00    0.0000  Reservoir
   
   
  Link Results at 14:00:00 hrs:
  ----------------------------------------------
                       Flow  Velocity  Headloss
  Link                  gpm       fps   /1000ft
  ----------------------------------------------
  L1                 7.1500      0.05      0.00
  P1                 7.1500      0.05      0.00
  P2                 6.8046      0.04      0.00
  P3                 6.0205      0.04      0.00
  P4                 5.3921      0.03      0.00
  P5                 4.6237      0.03      0.00
  P6                 3.5567      0.02      0.00
  P7                 2.5581      0.02      0.00
   
   
  Node Results at 15:00:00 hrs:
  --------------------------------------------------------
                     Demand      Head  Pressure  Flouride
  Node                  gpm        ft       psi      mg/l
  --------------------------------------------------------
  8                    0.00   1000.00    433.30    0.5268
  i1                   0.15   1000.00    433.30    0.6942
  i2                   0.33   1000.00    433.30    1.0323
  i3                   0.27   1000.00    433.30    0.9840
  i4                   0.33   1000.00    433.30    0.9840
  i5                   0.46   1000.00    433.30    0.9998
  i6                   0.43   1000.00    433.30    0.9999
  10                   1.09   1000.00    433.30    1.0000
  src                 -3.05   1000.00      0.00    0.0000  Reservoir
   
   
  Link Results at 15:00:00 hrs:
  ----------------------------------------------
                       Flow  Velocity  Headloss
  Link                  gpm       fps   /1000ft
  ----------------------------------------------
  L1                 3.0500      0.02      0.00
  P1                 3.0500      0.02      0.00
  P2                 2.9027      0.02      0.00
  P3                 2.5682      0.02      0.00
  P4                 2.3001      0.01      0.00
  P5                 1.9723      0.01      0.00
  P6                 1.5172      0.01      0.00
  P7                 1.0912      0.01      0.00
   
   
  Node Results at 16:00:00 hrs:
  --------------------------------------------------------
                     Demand      Head  Pressure  Flouride
  Node                  gpm        ft       psi      mg/l
  --------------------------------------------------------
  8                    0.00   1000.00    433.30    0.5268
  i1                   0.07   1000.00    433.30    0.5268
  i2                   0.17   1000.00    433.30    0.7944
  i3                   0.14   1000.00    433.30    0.9840
  i4                   0.17   1000.00    433.30    0.9840
  i5                   0.23   1000.00    433.30    0.9998
  i6                   0.22   1000.00    433.30    0.9999
  10                   0.55   1000.00    433.30    1.0000
  src                 -1.55   1000.00      0.00    0.0000  Reservoir
   
   
  Link Results at 16:00:00 hrs:
  ----------------------------------------------
                       Flow  Velocity  Headloss
  Link                  gpm       fps   /1000ft
  ----------------------------------------------
  L1                 1.5500      0.01      0.00
  P1                 1.5500      0.01      0.00
  P2                 1.4751      0.01      0.00
  P3                 1.3051      0.01      0.00
  P4                 1.1689      0.01      0.00
  P5                 1.0023      0.01      0.00
  P6                 0.7710      0.00      0.00
  P7                 0.5546      0.00      0.00
   
   
  Node Results at 17:00:00 hrs:
  --------------------------------------------------------
                     Demand      Head  Pressure  Flouride
  Node                  gpm        ft       psi      mg/l
  --------------------------------------------------------
  8                    0.00   1000.00    433.30    0.5268
  i1                   0.19   1000.00    433.30    0.5268
  i2                   0.43   1000.00    433.30    0.7944
  i3                   0.34   1000.00    433.30    1.0323
  i4                   0.42   1000.00    433.30    0.9840
  i5                   0.58   1000.00    433.30    0.9998
  i6                   0.54   1000.00    433.30    0.9999
  10                   1.40   1000.00    433.30    1.0000
  src                 -3.90   1000.00      0.00    0.0000  Reservoir
   
   
  Link Results at 17:00:00 hrs:
  ----------------------------------------------
                       Flow  Velocity  Headloss
  Link                  gpm       fps   /1000ft
  ----------------------------------------------
  L1                 3.9000      0.02      0.00
  P1                 3.9000      0.02      0.00
  P2                 3.7116      0.02      0.00
  P3                 3.2839      0.02      0.00
  P4                 2.9411      0.02      0.00
  P5                 2.5220      0.02      0.00
  P6                 1.9400      0.01      0.00
  P7                 1.3953      0.01      0.00
   
   
  Node Results at 18:00:00 hrs:
  --------------------------------------------------------
                     Demand      Head  Pressure  Flouride
  Node                  gpm        ft       psi      mg/l
  --------------------------------------------------------
  8                    0.00   1000.00    433.30    0.5268
  i1                   0.09   1000.00    433.30    0.5268
  i2                   0.20   1000.00    433.30    0.6942
  i3                   0.16   1000.00    433.30    0.8151
  i4                   0.20   1000.00    433.30    0.9840
  i5                   0.28   1000.00    433.30    0.9840
  i6                   0.26   1000.00    433.30    0.9999
  10                   0.66   1000.00    433.30    0.9999
  src                 -1.85   1000.00      0.00    0.0000  Reservoir
   
   
  Link Results at 18:00:00 hrs:
  ----------------------------------------------
                       Flow  Velocity  Headloss
  Link                  gpm       fps   /1000ft
  ----------------------------------------------
  L1                 1.8499      0.01      0.00
  P1                 1.8500      0.01      0.00
  P2                 1.7606      0.01      0.00
  P3                 1.5578      0.01      0.00
  P4                 1.3952      0.01      0.00
  P5                 1.1963      0.01      0.00
  P6                 0.9203      0.01      0.00
  P7                 0.6619      0.00      0.00
   
   
  Node Results at 19:00:00 hrs:
  --------------------------------------------------------
                     Demand      Head  Pressure  Flouride
  Node                  gpm        ft       psi      mg/l
  --------------------------------------------------------
  8                    0.00   1000.00    433.30    0.5268
  i1                   0.16   1000.00    433.30    0.5268
  i2                   0.37   1000.00    433.30    0.5349
  i3                   0.29   1000.00    433.30    0.7944
  i4                   0.36   1000.00    433.30    0.9840
  i5                   0.50   1000.00    433.30    0.9840
  i6                   0.47   1000.00    433.30    0.9999
  10                   1.20   1000.00    433.30    0.9999
  src                 -3.35   1000.00      0.00    0.0000  Reservoir
   
   
  Link Results at 19:00:00 hrs:
  ----------------------------------------------
                       Flow  Velocity  Headloss
  Link                  gpm       fps   /1000ft
  ----------------------------------------------
  L1                 3.3500      0.02      0.00
  P1                 3.3500      0.02      0.00
  P2                 3.1882      0.02      0.00
  P3                 2.8208      0.02      0.00
  P4                 2.5264      0.02      0.00
  P5                 2.1663      0.01      0.00
  P6                 1.6664      0.01      0.00
  P7                 1.1986      0.01      0.00
   
   
  Node Results at 20:00:00 hrs:
  --------------------------------------------------------
                     Demand      Head  Pressure  Flouride
  Node                  gpm        ft       psi      mg/l
  --------------------------------------------------------
  8                    0.00   1000.00    433.30    0.5911
  i1                   0.30   1000.00    433.30    0.5268
  i2                   0.69   1000.00    433.30    0.5268
  i3                   0.55   1000.00    433.30    0.6944
  i4                   0.68   1000.00    433.30    1.0323
  i5                   0.94   1000.00    433.30    0.9840
  i6                   0.88   1000.00    433.30    0.9999
  10                   2.25   1000.00    433.30    0.9999
  src                 -6.30   1000.00      0.00    0.0000  Reservoir
   
   
  Link Results at 20:00:00 hrs:
  ----------------------------------------------
                       Flow  Velocity  Headloss
  Link                  gpm       fps   /1000ft
  ----------------------------------------------
  L1                 6.3000      0.04      0.00
  P1                 6.3000      0.04      0.00
  P2                 5.9956      0.04      0.00
  P3                 5.3048      0.03      0.00
  P4                 4.7511      0.03      0.00
  P5                 4.0740      0.03      0.00
  P6                 3.1339      0.02      0.00
  P7                 2.2540      0.01      0.00
   
   
  Node Results at 21:00:00 hrs:
  --------------------------------------------------------
                     Demand      Head  Pressure  Flouride
  Node                  gpm        ft       psi      mg/l
  --------------------------------------------------------
  8                    0.00   1000.00    433.30    0.6927
  i1                   0.38   1000.00    433.30    0.5911
  i2                   0.86   1000.00    433.30    0.5268
  i3                   0.69   1000.00    433.30    0.5268
  i4                   0.84   1000.00    433.30    0.7944
  i5                   1.16   1000.00    433.30    1.0323
  i6                   1.09   1000.00    433.30    0.9840
  10                   2.79   1000.00    433.30    0.9999
  src                 -7.80   1000.00      0.00    0.0000  Reservoir
   
   
  Link Results at 21:00:00 hrs:
  ----------------------------------------------
                       Flow  Velocity  Headloss
  Link                  gpm       fps   /1000ft
  ----------------------------------------------
  L1                 7.8000      0.05      0.00
  P1                 7.8000      0.05      0.00
  P2                 7.4232      0.05      0.00
  P3                 6.5678      0.04      0.00
  P4                 5.8823      0.04      0.00
  P5                 5.0440      0.03      0.00
  P6                 3.8800      0.02      0.00
  P7                 2.7907      0.02      0.00
   
   
  Node Results at 22:00:00 hrs:
  --------------------------------------------------------
                     Demand      Head  Pressure  Flouride
  Node                  gpm        ft       psi      mg/l
  --------------------------------------------------------
  8                    0.00   1000.00    433.30    0.9583
  i1                   0.29   1000.00    433.30    0.6927
  i2                   0.65   1000.00    433.30    0.5399
  i3                   0.52   1000.00    433.30    0.5268
  i4                   0.64   1000.00    433.30    0.5268
  i5                   0.89   1000.00    433.30    0.7943
  i6                   0.83   1000.00    433.30    0.9840
  10                   2.13   1000.00    433.30    0.9999
  src                 -5.95   1000.00      0.00    0.0000  Reservoir
   
   
  Link Results at 22:00:00 hrs:
  ----------------------------------------------
                       Flow  Velocity  Headloss
  Link                  gpm       fps   /1000ft
  ----------------------------------------------
  L1                 5.9500      0.04      0.00
  P1                 5.9500      0.04      0.00
  P2                 5.6626      0.04      0.00
  P3                 5.0101      0.03      0.00
  P4                 4.4871      0.03      0.00
  P5                 3.8477      0.02      0.00
  P6                 2.9598      0.02      0.00
  P7                 2.1288      0.01      0.00
   
   
  Node Results at 23:00:00 hrs:
  --------------------------------------------------------
                     Demand      Head  Pressure  Flouride
  Node                  gpm        ft       psi      mg/l
  --------------------------------------------------------
  8                    0.00   1000.00    433.30    0.8322
  i1                   0.30   1000.00    433.30    0.9583
  i2                   0.69   1000.00    433.30    0.6927
  i3                   0.55   1000.00    433.30    0.5268
  i4                   0.68   1000.00    433.30    0.5268
  i5                   0.94   1000.00    433.30    0.5268
  i6                   0.88   1000.00    433.30    1.0323
  10                   2.25   1000.00    433.30    0.9840
  src                 -6.30   1000.00      0.00    0.0000  Reservoir
   
   
  Link Results at 23:00:00 hrs:
  ----------------------------------------------
                       Flow  Velocity  Headloss
  Link                  gpm       fps   /1000ft
  ----------------------------------------------
  L1                 6.3000      0.04      0.00
  P1                 6.3000      0.04      0.00
  P2                 5.9956      0.04      0.00
  P3                 5.3048      0.03      0.00
  P4                 4.7511      0.03      0.00
  P5                 4.0740      0.03      0.00
  P6                 3.1339      0.02      0.00
  P7                 2.2540      0.01      0.00
   
   
  Node Results at 24:00:00 hrs:
  --------------------------------------------------------
                     Demand      Head  Pressure  Flouride
  Node                  gpm        ft       psi      mg/l
  --------------------------------------------------------
  8                    0.00   1000.00    433.30    0.2082
  i1                   0.14   1000.00    433.30    0.8322
  i2                   0.33   1000.00    433.30    0.9583
  i3                   0.26   1000.00    433.30    0.6927
  i4                   0.32   1000.00    433.30    0.5269
  i5                   0.45   1000.00    433.30    0.5269
  i6                   0.42   1000.00    433.30    0.6946
  10                   1.07   1000.00    433.30    0.9840
  src                 -3.00   1000.00      0.00    0.0000  Reservoir
   
   
  Link Results at 24:00:00 hrs:
  ----------------------------------------------
                       Flow  Velocity  Headloss
  Link                  gpm       fps   /1000ft
  ----------------------------------------------
  L1                 3.0000      0.02      0.00
  P1                 3.0000      0.02      0.00
  P2                 2.8551      0.02      0.00
  P3                 2.5261      0.02      0.00
  P4                 2.2624      0.01      0.00
  P5                 1.9400      0.01      0.00
  P6                 1.4923      0.01      0.00
  P7                 1.0733      0.01      0.00
   
   
  Node Results at 25:00:00 hrs:
  --------------------------------------------------------
                     Demand      Head  Pressure  Flouride
  Node                  gpm        ft       psi      mg/l
  --------------------------------------------------------
  8                    0.00   1000.00    433.30    0.1946
  i1                   0.27   1000.00    433.30    0.2082
  i2                   0.60   1000.00    433.30    0.9583
  i3                   0.48   1000.00    433.30    0.6927
  i4                   0.59   1000.00    433.30    0.5908
  i5                   0.82   1000.00    433.30    0.5269
  i6                   0.77   1000.00    433.30    0.5269
  10                   1.97   1000.00    433.30    0.9840
  src                 -5.50   1000.00      0.00    0.0000  Reservoir
   
   
  Link Results at 25:00:00 hrs:
  ----------------------------------------------
                       Flow  Velocity  Headloss
  Link                  gpm       fps   /1000ft
  ----------------------------------------------
  L1                 5.5000      0.04      0.00
  P1                 5.5000      0.04      0.00
  P2                 5.2343      0.03      0.00
  P3                 4.6312      0.03      0.00
  P4                 4.1478      0.03      0.00
  P5                 3.5567      0.02      0.00
  P6                 2.7359      0.02      0.00
  P7                 1.9678      0.01      0.00
   
   
  Node Results at 26:00:00 hrs:
  --------------------------------------------------------
                     Demand      Head  Pressure  Flouride
  Node                  gpm        ft       psi      mg/l
  --------------------------------------------------------
  8                    0.00   1000.00    433.30    0.1338
  i1                   0.25   1000.00    433.30    0.2082
  i2                   0.56   1000.00    433.30    0.8322
  i3                   0.45   1000.00    433.30    0.9583
  i4                   0.55   1000.00    433.30    0.6927
  i5                   0.77   1000.00    433.30    0.5269
  i6                   0.72   1000.00    433.30    0.5269
  10                   1.84   1000.00    433.30    1.0322
  src                 -5.15   1000.00      0.00    0.0000  Reservoir
   
   
  Link Results at 26:00:00 hrs:
  ----------------------------------------------
                       Flow  Velocity  Headloss
  Link                  gpm       fps   /1000ft
  ----------------------------------------------
  L1                 5.1500      0.03      0.00
  P1                 5.1500      0.03      0.00
  P2                 4.9012      0.03      0.00
  P3                 4.3365      0.03      0.00
  P4                 3.8838      0.02      0.00
  P5                 3.3304      0.02      0.00
  P6                 2.5618      0.02      0.00
  P7                 1.8426      0.01      0.00
   
   
  Node Results at 27:00:00 hrs:
  --------------------------------------------------------
                     Demand      Head  Pressure  Flouride
  Node                  gpm        ft       psi      mg/l
  --------------------------------------------------------
  8                    0.00   1000.00    433.30    0.1338
  i1                   0.18   1000.00    433.30    0.1338
  i2                   0.40   1000.00    433.30    0.2082
  i3                   0.32   1000.00    433.30    0.8322
  i4                   0.39   1000.00    433.30    0.9583
  i5                   0.54   1000.00    433.30    0.6926
  i6                   0.51   1000.00    433.30    0.5269
  10                   1.31   1000.00    433.30    0.7003
  src                 -3.65   1000.00      0.00    0.0000  Reservoir
   
   
  Link Results at 27:00:00 hrs:
  ----------------------------------------------
                       Flow  Velocity  Headloss
  Link                  gpm       fps   /1000ft
  ----------------------------------------------
  L1                 3.6500      0.02      0.00
  P1                 3.6500      0.02      0.00
  P2                 3.4737      0.02      0.00
  P3                 3.0734      0.02      0.00
  P4                 2.7526      0.02      0.00
  P5                 2.3603      0.02      0.00
  P6                 1.8157      0.01      0.00
  P7                 1.3059      0.01      0.00
   
   
  Node Results at 28:00:00 hrs:
  --------------------------------------------------------
                     Demand      Head  Pressure  Flouride
  Node                  gpm        ft       psi      mg/l
  --------------------------------------------------------
  8                    0.00   1000.00    433.30    0.1338
  i1                   0.21   1000.00    433.30    0.1338
  i2                   0.48   1000.00    433.30    0.2082
  i3                   0.39   1000.00    433.30    0.4844
  i4                   0.47   1000.00    433.30    0.9583
  i5                   0.66   1000.00    433.30    0.6926
  i6                   0.61   1000.00    433.30    0.5269
  10                   1.57   1000.00    433.30    0.5269
  src                 -4.40   1000.00      0.00    0.0000  Reservoir
   
   
  Link Results at 28:00:00 hrs:
  ----------------------------------------------
                       Flow  Velocity  Headloss
  Link                  gpm       fps   /1000ft
  ----------------------------------------------
  L1                 4.4000      0.03      0.00
  P1                 4.4000      0.03      0.00
  P2                 4.1874      0.03      0.00
  P3                 3.7049      0.02      0.00
  P4                 3.3182      0.02      0.00
  P5                 2.8453      0.02      0.00
  P6                 2.1887      0.01      0.00
  P7                 1.5742      0.01      0.00
   
   
  Node Results at 29:00:00 hrs:
  --------------------------------------------------------
                     Demand      Head  Pressure  Flouride
  Node                  gpm        ft       psi      mg/l
  --------------------------------------------------------
  8                    0.00   1000.00    433.30    0.1338
  i1                   0.26   1000.00    433.30    0.1338
  i2                   0.58   1000.00    433.30    0.1338
  i3                   0.47   1000.00    433.30    0.2082
  i4                   0.57   1000.00    433.30    0.8322
  i5                   0.79   1000.00    433.30    0.9583
  i6                   0.74   1000.00    433.30    0.5908
  10                   1.90   1000.00    433.30    0.5269
  src                 -5.30   1000.00      0.00    0.0000  Reservoir
   
   
  Link Results at 29:00:00 hrs:
  ----------------------------------------------
                       Flow  Velocity  Headloss
  Link                  gpm       fps   /1000ft
  ----------------------------------------------
  L1                 5.3001      0.03      0.00
  P1                 5.3000      0.03      0.00
  P2                 5.0440      0.03      0.00
  P3                 4.4628      0.03      0.00
  P4                 3.9969      0.03      0.00
  P5                 3.4274      0.02      0.00
  P6                 2.6364      0.02      0.00
  P7                 1.8962      0.01      0.00
   
   
  Node Results at 30:00:00 hrs:
  --------------------------------------------------------
                     Demand      Head  Pressure  Flouride
  Node                  gpm        ft       psi      mg/l
  --------------------------------------------------------
  8                    0.00   1000.00    433.30    0.1338
  i1                   0.24   1000.00    433.30    0.1338
  i2                   0.54   1000.00    433.30    0.1338
  i3                   0.44   1000.00    433.30    0.1338
  i4                   0.53   1000.00    433.30    0.2082
  i5                   0.74   1000.00    433.30    0.9556
  i6                   0.69   1000.00    433.30    0.6926
  10                   1.77   1000.00    433.30    0.5269
  src                 -4.95   1000.00      0.00    0.0000  Reservoir
   
   
  Link Results at 30:00:00 hrs:
  ----------------------------------------------
                       Flow  Velocity  Headloss
  Link                  gpm       fps   /1000ft
  ----------------------------------------------
  L1                 4.9500      0.03      0.00
  P1                 4.9500      0.03      0.00
  P2                 4.7109      0.03      0.00
  P3                 4.1680      0.03      0.00
  P4                 3.7330      0.02      0.00
  P5                 3.2010      0.02      0.00
  P6                 2.4623      0.02      0.00
  P7                 1.7710      0.01      0.00
   
   
  Node Results at 31:00:00 hrs:
  --------------------------------------------------------
                     Demand      Head  Pressure  Flouride
  Node                  gpm        ft       psi      mg/l
  --------------------------------------------------------
  8                    0.00   1000.00    433.30    0.1338
  i1                   0.42   1000.00    433.30    0.1338
  i2                   0.94   1000.00    433.30    0.1338
  i3                   0.76   1000.00    433.30    0.1338
  i4                   0.92   1000.00    433.30    0.1947
  i5                   1.28   1000.00    433.30    0.8323
  i6                   1.20   1000.00    433.30    0.9582
  10                   3.08   1000.00    433.30    0.5269
  src                 -8.60   1000.00      0.00    0.0000  Reservoir
   
   
  Link Results at 31:00:00 hrs:
  ----------------------------------------------
                       Flow  Velocity  Headloss
  Link                  gpm       fps   /1000ft
  ----------------------------------------------
  L1                 8.6000      0.05      0.00
  P1                 8.6000      0.05      0.00
  P2                 8.1845      0.05      0.00
  P3                 7.2415      0.05      0.00
  P4                 6.4856      0.04      0.00
  P5                 5.5614      0.04      0.00
  P6                 4.2780      0.03      0.00
  P7                 3.0769      0.02      0.00
   
   
  Node Results at 32:00:00 hrs:
  --------------------------------------------------------
                     Demand      Head  Pressure  Flouride
  Node                  gpm        ft       psi      mg/l
  --------------------------------------------------------
  8                    0.00   1000.00    433.30    0.8072
  i1                   0.27   1000.00    433.30    0.1338
  i2                   0.61   1000.00    433.30    0.1338
  i3                   0.49   1000.00    433.30    0.1338
  i4                   0.60   1000.00    433.30    0.1338
  i5                   0.84   1000.00    433.30    0.1947
  i6                   0.78   1000.00    433.30    0.8323
  10                   2.00   1000.00    433.30    0.6926
  src                 -5.60   1000.00      0.00    0.0000  Reservoir
   
   
  Link Results at 32:00:00 hrs:
  ----------------------------------------------
                       Flow  Velocity  Headloss
  Link                  gpm       fps   /1000ft
  ----------------------------------------------
  L1                 5.6000      0.04      0.00
  P1                 5.6000      0.04      0.00
  P2                 5.3295      0.03      0.00
  P3                 4.7154      0.03      0.00
  P4                 4.2232      0.03      0.00
  P5                 3.6214      0.02      0.00
  P6                 2.7857      0.02      0.00
  P7                 2.0036      0.01      0.00
   
   
  Node Results at 33:00:00 hrs:
  --------------------------------------------------------
                     Demand      Head  Pressure  Flouride
  Node                  gpm        ft       psi      mg/l
  --------------------------------------------------------
  8                    0.00   1000.00    433.30    0.9290
  i1                   0.32   1000.00    433.30    0.8072
  i2                   0.73   1000.00    433.30    0.1338
  i3                   0.59   1000.00    433.30    0.1338
  i4                   0.72   1000.00    433.30    0.1338
  i5                   1.00   1000.00    433.30    0.1338
  i6                   0.94   1000.00    433.30    0.2080
  10                   2.40   1000.00    433.30    0.9582
  src                 -6.70   1000.00      0.00    0.0000  Reservoir
   
   
  Link Results at 33:00:00 hrs:
  ----------------------------------------------
                       Flow  Velocity  Headloss
  Link                  gpm       fps   /1000ft
  ----------------------------------------------
  L1                 6.7000      0.04      0.00
  P1                 6.7000      0.04      0.00
  P2                 6.3763      0.04      0.00
  P3                 5.6416      0.04      0.00
  P4                 5.0527      0.03      0.00
  P5                 4.3327      0.03      0.00
  P6                 3.3328      0.02      0.00
  P7                 2.3971      0.02      0.00
   
   
  Node Results at 34:00:00 hrs:
  --------------------------------------------------------
                     Demand      Head  Pressure  Flouride
  Node                  gpm        ft       psi      mg/l
  --------------------------------------------------------
  8                    0.00   1000.00    433.30    0.1320
  i1                   0.27   1000.00    433.30    0.9290
  i2                   0.61   1000.00    433.30    0.8072
  i3                   0.49   1000.00    433.30    0.1338
  i4                   0.60   1000.00    433.30    0.1338
  i5                   0.84   1000.00    433.30    0.1338
  i6                   0.78   1000.00    433.30    0.1338
  10                   2.00   1000.00    433.30    0.8324
  src                 -5.60   1000.00      0.00    0.0000  Reservoir
   
   
  Link Results at 34:00:00 hrs:
  ----------------------------------------------
                       Flow  Velocity  Headloss
  Link                  gpm       fps   /1000ft
  ----------------------------------------------
  L1                 5.6001      0.04      0.00
  P1                 5.6000      0.04      0.00
  P2                 5.3295      0.03      0.00
  P3                 4.7154      0.03      0.00
  P4                 4.2232      0.03      0.00
  P5                 3.6214      0.02      0.00
  P6                 2.7857      0.02      0.00
  P7                 2.0036      0.01      0.00
   
   
  Node Results at 35:00:00 hrs:
  --------------------------------------------------------
                     Demand      Head  Pressure  Flouride
  Node                  gpm        ft       psi      mg/l
  --------------------------------------------------------
  8                    0.00   1000.00    433.30    0.1235
  i1                   0.23   1000.00    433.30    0.1279
  i2                   0.53   1000.00    433.30    0.9290
  i3                   0.43   1000.00    433.30    0.8072
  i4                   0.52   1000.00    433.30    0.1338
  i5                   0.72   1000.00    433.30    0.1338
  i6                   0.68   1000.00    433.30    0.1338
  10                   1.74   1000.00    433.30    0.2079
  src                 -4.85   1000.00      0.00    0.0000  Reservoir
   
   
  Link Results at 35:00:00 hrs:
  ----------------------------------------------
                       Flow  Velocity  Headloss
  Link                  gpm       fps   /1000ft
  ----------------------------------------------
  L1                 4.8500      0.03      0.00
  P1                 4.8500      0.03      0.00
  P2                 4.6157      0.03      0.00
  P3                 4.0838      0.03      0.00
  P4                 3.6576      0.02      0.00
  P5                 3.1363      0.02      0.00
  P6                 2.4126      0.02      0.00
  P7                 1.7352      0.01      0.00
   
   
  Node Results at 36:00:00 hrs:
  --------------------------------------------------------
                     Demand      Head  Pressure  Flouride
  Node                  gpm        ft       psi      mg/l
  --------------------------------------------------------
  8                    0.00   1000.00    433.30    0.1066
  i1                   0.25   1000.00    433.30    0.1279
  i2                   0.57   1000.00    433.30    0.9290
  i3                   0.46   1000.00    433.30    0.8072
  i4                   0.56   1000.00    433.30    0.1338
  i5                   0.78   1000.00    433.30    0.1338
  i6                   0.73   1000.00    433.30    0.1338
  10                   1.86   1000.00    433.30    0.2079
  src                 -5.20   1000.00      0.00    0.0000  Reservoir
   
   
  Link Results at 36:00:00 hrs:
  ----------------------------------------------
                       Flow  Velocity  Headloss
  Link                  gpm       fps   /1000ft
  ----------------------------------------------
  L1                 5.2000      0.03      0.00
  P1                 5.2000      0.03      0.00
  P2                 4.9488      0.03      0.00
  P3                 4.3786      0.03      0.00
  P4                 3.9215      0.03      0.00
  P5                 3.3627      0.02      0.00
  P6                 2.5867      0.02      0.00
  P7                 1.8605      0.01      0.00
   
   
  Node Results at 37:00:00 hrs:
  --------------------------------------------------------
                     Demand      Head  Pressure  Flouride
  Node                  gpm        ft       psi      mg/l
  --------------------------------------------------------
  8                    0.00   1000.00    433.30    0.0878
  i1                   0.28   1000.00    433.30    0.1066
  i2                   0.63   1000.00    433.30    0.1281
  i3                   0.51   1000.00    433.30    0.9290
  i4                   0.62   1000.00    433.30    0.8072
  i5                   0.86   1000.00    433.30    0.1338
  i6                   0.80   1000.00    433.30    0.1338
  10                   2.06   1000.00    433.30    0.1338
  src                 -5.75   1000.00      0.00    0.0000  Reservoir
   
   
  Link Results at 37:00:00 hrs:
  ----------------------------------------------
                       Flow  Velocity  Headloss
  Link                  gpm       fps   /1000ft
  ----------------------------------------------
  L1                 5.7501      0.04      0.00
  P1                 5.7500      0.04      0.00
  P2                 5.4722      0.03      0.00
  P3                 4.8417      0.03      0.00
  P4                 4.3363      0.03      0.00
  P5                 3.7184      0.02      0.00
  P6                 2.8603      0.02      0.00
  P7                 2.0572      0.01      0.00
   
   
  Node Results at 38:00:00 hrs:
  --------------------------------------------------------
                     Demand      Head  Pressure  Flouride
  Node                  gpm        ft       psi      mg/l
  --------------------------------------------------------
  8                    0.00   1000.00    433.30    0.1061
  i1                   0.22   1000.00    433.30    0.0878
  i2                   0.50   1000.00    433.30    0.1281
  i3                   0.40   1000.00    433.30    0.1281
  i4                   0.49   1000.00    433.30    0.9289
  i5                   0.68   1000.00    433.30    0.8072
  i6                   0.64   1000.00    433.30    0.1338
  10                   1.63   1000.00    433.30    0.1338
  src                 -4.55   1000.00      0.00    0.0000  Reservoir
   
   
  Link Results at 38:00:00 hrs:
  ----------------------------------------------
                       Flow  Velocity  Headloss
  Link                  gpm       fps   /1000ft
  ----------------------------------------------
  L1                 4.5500      0.03      0.00
  P1                 4.5500      0.03      0.00
  P2                 4.3302      0.03      0.00
  P3                 3.8312      0.02      0.00
  P4                 3.4313      0.02      0.00
  P5                 2.9423      0.02      0.00
  P6                 2.2634      0.01      0.00
  P7                 1.6279      0.01      0.00
   
   
  Node Results at 39:00:00 hrs:
  --------------------------------------------------------
                     Demand      Head  Pressure  Flouride
  Node                  gpm        ft       psi      mg/l
  --------------------------------------------------------
  8                    0.00   1000.00    433.30    0.0902
  i1                   0.15   1000.00    433.30    0.1061
  i2                   0.33   1000.00    433.30    0.1066
  i3                   0.27   1000.00    433.30    0.1281
  i4                   0.33   1000.00    433.30    0.1281
  i5                   0.46   1000.00    433.30    0.8072
  i6                   0.43   1000.00    433.30    0.1338
  10                   1.09   1000.00    433.30    0.1338
  src                 -3.05   1000.00      0.00    0.0000  Reservoir
   
   
  Link Results at 39:00:00 hrs:
  ----------------------------------------------
                       Flow  Velocity  Headloss
  Link                  gpm       fps   /1000ft
  ----------------------------------------------
  L1                 3.0500      0.02      0.00
  P1                 3.0500      0.02      0.00
  P2                 2.9027      0.02      0.00
  P3                 2.5682      0.02      0.00
  P4                 2.3001      0.01      0.00
  P5                 1.9723      0.01      0.00
  P6                 1.5172      0.01      0.00
  P7                 1.0912      0.01      0.00
   
   
  Node Results at 40:00:00 hrs:
  --------------------------------------------------------
                     Demand      Head  Pressure  Flouride
  Node                  gpm        ft       psi      mg/l
  --------------------------------------------------------
  8                    0.00   1000.00    433.30    0.0902
  i1                   0.16   1000.00    433.30    0.1061
  i2                   0.37   1000.00    433.30    0.0878
  i3                   0.30   1000.00    433.30    0.1281
  i4                   0.37   1000.00    433.30    0.1281
  i5                   0.51   1000.00    433.30    0.9288
  i6                   0.47   1000.00    433.30    0.8073
  10                   1.22   1000.00    433.30    0.1338
  src                 -3.40   1000.00      0.00    0.0000  Reservoir
   
   
  Link Results at 40:00:00 hrs:
  ----------------------------------------------
                       Flow  Velocity  Headloss
  Link                  gpm       fps   /1000ft
  ----------------------------------------------
  L1                 3.4000      0.02      0.00
  P1                 3.4000      0.02      0.00
  P2                 3.2357      0.02      0.00
  P3                 2.8629      0.02      0.00
  P4                 2.5641      0.02      0.00
  P5                 2.1987      0.01      0.00
  P6                 1.6913      0.01      0.00
  P7                 1.2165      0.01      0.00
   
   
  Node Results at 41:00:00 hrs:
  --------------------------------------------------------
                     Demand      Head  Pressure  Flouride
  Node                  gpm        ft       psi      mg/l
  --------------------------------------------------------
  8                    0.00   1000.00    433.30    0.0902
  i1                   0.11   1000.00    433.30    0.0902
  i2                   0.25   1000.00    433.30    0.0878
  i3                   0.20   1000.00    433.30    0.1068
  i4                   0.25   1000.00    433.30    0.1281
  i5                   0.34   1000.00    433.30    0.9288
  i6                   0.32   1000.00    433.30    0.8073
  10                   0.82   1000.00    433.30    0.1338
  src                 -2.30   1000.00      0.00    0.0000  Reservoir
   
   
  Link Results at 41:00:00 hrs:
  ----------------------------------------------
                       Flow  Velocity  Headloss
  Link                  gpm       fps   /1000ft
  ----------------------------------------------
  L1                 2.2999      0.01      0.00
  P1                 2.3000      0.01      0.00
  P2                 2.1889      0.01      0.00
  P3                 1.9367      0.01      0.00
  P4                 1.7345      0.01      0.00
  P5                 1.4873      0.01      0.00
  P6                 1.1441      0.01      0.00
  P7                 0.8229      0.01      0.00
   
   
  Node Results at 42:00:00 hrs:
  --------------------------------------------------------
                     Demand      Head  Pressure  Flouride
  Node                  gpm        ft       psi      mg/l
  --------------------------------------------------------
  8                    0.00   1000.00    433.30    0.0902
  i1                   0.12   1000.00    433.30    0.0902
  i2                   0.28   1000.00    433.30    0.1060
  i3                   0.22   1000.00    433.30    0.0878
  i4                   0.27   1000.00    433.30    0.1281
  i5                   0.38   1000.00    433.30    0.1281
  i6                   0.36   1000.00    433.30    0.8073
  10                   0.91   1000.00    433.30    0.1338
  src                 -2.55   1000.00      0.00    0.0000  Reservoir
   
   
  Link Results at 42:00:00 hrs:
  ----------------------------------------------
                       Flow  Velocity  Headloss
  Link                  gpm       fps   /1000ft
  ----------------------------------------------
  L1                 2.5501      0.02      0.00
  P1                 2.5500      0.02      0.00
  P2                 2.4268      0.02      0.00
  P3                 2.1472      0.01      0.00
  P4                 1.9231      0.01      0.00
  P5                 1.6490      0.01      0.00
  P6                 1.2685      0.01      0.00
  P7                 0.9123      0.01      0.00
   
   
  Node Results at 43:00:00 hrs:
  --------------------------------------------------------
                     Demand      Head  Pressure  Flouride
  Node                  gpm        ft       psi      mg/l
  --------------------------------------------------------
  8                    0.00   1000.00    433.30    0.0902
  i1                   0.18   1000.00    433.30    0.0902
  i2                   0.41   1000.00    433.30    0.1060
  i3                   0.33   1000.00    433.30    0.0878
  i4                   0.40   1000.00    433.30    0.1281
  i5                   0.55   1000.00    433.30    0.1281
  i6                   0.52   1000.00    433.30    0.9260
  10                   1.32   1000.00    433.30    0.1338
  src                 -3.70   1000.00      0.00    0.0000  Reservoir
   
   
  Link Results at 43:00:00 hrs:
  ----------------------------------------------
                       Flow  Velocity  Headloss
  Link                  gpm       fps   /1000ft
  ----------------------------------------------
  L1                 3.7000      0.02      0.00
  P1                 3.7000      0.02      0.00
  P2                 3.5213      0.02      0.00
  P3                 3.1155      0.02      0.00
  P4                 2.7903      0.02      0.00
  P5                 2.3927      0.02      0.00
  P6                 1.8405      0.01      0.00
  P7                 1.3238      0.01      0.00
   
   
  Node Results at 44:00:00 hrs:
  --------------------------------------------------------
                     Demand      Head  Pressure  Flouride
  Node                  gpm        ft       psi      mg/l
  --------------------------------------------------------
  8                    0.00   1000.00    433.30    0.0902
  i1                   0.27   1000.00    433.30    0.0902
  i2                   0.61   1000.00    433.30    0.0902
  i3                   0.49   1000.00    433.30    0.1060
  i4                   0.60   1000.00    433.30    0.1067
  i5                   0.84   1000.00    433.30    0.1281
  i6                   0.78   1000.00    433.30    0.9288
  10                   2.00   1000.00    433.30    0.1338
  src                 -5.60   1000.00      0.00    0.0000  Reservoir
   
   
  Link Results at 44:00:00 hrs:
  ----------------------------------------------
                       Flow  Velocity  Headloss
  Link                  gpm       fps   /1000ft
  ----------------------------------------------
  L1                 5.6000      0.04      0.00
  P1                 5.6000      0.04      0.00
  P2                 5.3295      0.03      0.00
  P3                 4.7154      0.03      0.00
  P4                 4.2232      0.03      0.00
  P5                 3.6214      0.02      0.00
  P6                 2.7857      0.02      0.00
  P7                 2.0036      0.01      0.00
   
   
  Node Results at 45:00:00 hrs:
  --------------------------------------------------------
                     Demand      Head  Pressure  Flouride
  Node                  gpm        ft       psi      mg/l
  --------------------------------------------------------
  8                    0.00   1000.00    433.30    0.0902
  i1                   0.32   1000.00    433.30    0.0902
  i2                   0.73   1000.00    433.30    0.0902
  i3                   0.59   1000.00    433.30    0.0902
  i4                   0.72   1000.00    433.30    0.0879
  i5                   1.00   1000.00    433.30    0.1067
  i6                   0.94   1000.00    433.30    0.1280
  10                   2.40   1000.00    433.30    0.8073
  src                 -6.70   1000.00      0.00    0.0000  Reservoir
   
   
  Link Results at 45:00:00 hrs:
  ----------------------------------------------
                       Flow  Velocity  Headloss
  Link                  gpm       fps   /1000ft
  ----------------------------------------------
  L1                 6.7000      0.04      0.00
  P1                 6.7000      0.04      0.00
  P2                 6.3763      0.04      0.00
  P3                 5.6416      0.04      0.00
  P4                 5.0527      0.03      0.00
  P5                 4.3327      0.03      0.00
  P6                 3.3328      0.02      0.00
  P7                 2.3971      0.02      0.00
   
   
  Node Results at 46:00:00 hrs:
  --------------------------------------------------------
                     Demand      Head  Pressure  Flouride
  Node                  gpm        ft       psi      mg/l
  --------------------------------------------------------
  8                    0.00   1000.00    433.30    0.0902
  i1                   0.30   1000.00    433.30    0.0902
  i2                   0.69   1000.00    433.30    0.0902
  i3                   0.55   1000.00    433.30    0.0902
  i4                   0.68   1000.00    433.30    0.0998
  i5                   0.94   1000.00    433.30    0.0879
  i6                   0.88   1000.00    433.30    0.1280
  10                   2.25   1000.00    433.30    0.9288
  src                 -6.30   1000.00      0.00    0.0000  Reservoir
   
   
  Link Results at 46:00:00 hrs:
  ----------------------------------------------
                       Flow  Velocity  Headloss
  Link                  gpm       fps   /1000ft
  ----------------------------------------------
  L1                 6.3000      0.04      0.00
  P1                 6.3000      0.04      0.00
  P2                 5.9956      0.04      0.00
  P3                 5.3048      0.03      0.00
  P4                 4.7511      0.03      0.00
  P5                 4.0740      0.03      0.00
  P6                 3.1339      0.02      0.00
  P7                 2.2540      0.01      0.00
   
   
  Node Results at 47:00:00 hrs:
  --------------------------------------------------------
                     Demand      Head  Pressure  Flouride
  Node                  gpm        ft       psi      mg/l
  --------------------------------------------------------
  8                    0.00   1000.00    433.30    0.8443
  i1                   0.23   1000.00    433.30    0.0902
  i2                   0.53   1000.00    433.30    0.0902
  i3                   0.43   1000.00    433.30    0.0902
  i4                   0.52   1000.00    433.30    0.0902
  i5                   0.72   1000.00    433.30    0.1058
  i6                   0.68   1000.00    433.30    0.1067
  10                   1.74   1000.00    433.30    0.1280
  src                 -4.85   1000.00      0.00    0.0000  Reservoir
   
   
  Link Results at 47:00:00 hrs:
  ----------------------------------------------
                       Flow  Velocity  Headloss
  Link                  gpm       fps   /1000ft
  ----------------------------------------------
  L1                 4.8501      0.03      0.00
  P1                 4.8500      0.03      0.00
  P2                 4.6157      0.03      0.00
  P3                 4.0838      0.03      0.00
  P4                 3.6576      0.02      0.00
  P5                 3.1363      0.02      0.00
  P6                 2.4126      0.02      0.00
  P7                 1.7352      0.01      0.00
   
   
  Node Results at 48:00:00 hrs:
  --------------------------------------------------------
                     Demand      Head  Pressure  Flouride
  Node                  gpm        ft       psi      mg/l
  --------------------------------------------------------
  8                    0.00   1000.00    433.30    0.0885
  i1                   0.20   1000.00    433.30    0.8443
  i2                   0.45   1000.00    433.30    0.0902
  i3                   0.36   1000.00    433.30    0.0902
  i4                   0.44   1000.00    433.30    0.0902
  i5                   0.61   1000.00    433.30    0.0902
  i6                   0.57   1000.00    433.30    0.0881
  10                   1.47   1000.00    433.30    0.1280
  src                 -4.10   1000.00      0.00    0.0000  Reservoir
   
   
  Link Results at 48:00:00 hrs:
  ----------------------------------------------
                       Flow  Velocity  Headloss
  Link                  gpm       fps   /1000ft
  ----------------------------------------------
  L1                 4.1000      0.03      0.00
  P1                 4.1000      0.03      0.00
  P2                 3.9019      0.02      0.00
  P3                 3.4523      0.02      0.00
  P4                 3.0920      0.02      0.00
  P5                 2.6513      0.02      0.00
  P6                 2.0395      0.01      0.00
  P7                 1.4669      0.01      0.00
   
   
  Node Results at 49:00:00 hrs:
  --------------------------------------------------------
                     Demand      Head  Pressure  Flouride
  Node                  gpm        ft       psi      mg/l
  --------------------------------------------------------
  8                    0.00   1000.00    433.30    0.0885
  i1                   0.33   1000.00    433.30    0.6782
  i2                   0.75   1000.00    433.30    0.0902
  i3                   0.60   1000.00    433.30    0.0902
  i4                   0.74   1000.00    433.30    0.0902
  i5                   1.02   1000.00    433.30    0.0902
  i6                   0.96   1000.00    433.30    0.1058
  10                   2.45   1000.00    433.30    0.1280
  src                 -6.85   1000.00      0.00    0.0000  Reservoir
   
   
  Link Results at 49:00:00 hrs:
  ----------------------------------------------
                       Flow  Velocity  Headloss
  Link                  gpm       fps   /1000ft
  ----------------------------------------------
  L1                 6.8500      0.04      0.00
  P1                 6.8500      0.04      0.00
  P2                 6.5191      0.04      0.00
  P3                 5.7679      0.04      0.00
  P4                 5.1659      0.03      0.00
  P5                 4.4297      0.03      0.00
  P6                 3.4075      0.02      0.00
  P7                 2.4508      0.02      0.00
   
   
  Node Results at 50:00:00 hrs:
  --------------------------------------------------------
                     Demand      Head  Pressure  Flouride
  Node                  gpm        ft       psi      mg/l
  --------------------------------------------------------
  8                    0.00   1000.00    433.30    0.0735
  i1                   0.25   1000.00    433.30    0.0885
  i2                   0.56   1000.00    433.30    0.8443
  i3                   0.45   1000.00    433.30    0.0902
  i4                   0.55   1000.00    433.30    0.0902
  i5                   0.77   1000.00    433.30    0.0902
  i6                   0.72   1000.00    433.30    0.0902
  10                   1.84   1000.00    433.30    0.0881
  src                 -5.15   1000.00      0.00    0.0000  Reservoir
   
   
  Link Results at 50:00:00 hrs:
  ----------------------------------------------
                       Flow  Velocity  Headloss
  Link                  gpm       fps   /1000ft
  ----------------------------------------------
  L1                 5.1500      0.03      0.00
  P1                 5.1500      0.03      0.00
  P2                 4.9012      0.03      0.00
  P3                 4.3365      0.03      0.00
  P4                 3.8838      0.02      0.00
  P5                 3.3304      0.02      0.00
  P6                 2.5618      0.02      0.00
  P7                 1.8426      0.01      0.00
   
   
  Node Results at 51:00:00 hrs:
  --------------------------------------------------------
                     Demand      Head  Pressure  Flouride
  Node                  gpm        ft       psi      mg/l
  --------------------------------------------------------
  8                    0.00   1000.00    433.30    0.0871
  i1                   0.20   1000.00    433.30    0.0735
  i2                   0.44   1000.00    433.30    0.0885
  i3                   0.36   1000.00    433.30    0.8443
  i4                   0.44   1000.00    433.30    0.0902
  i5                   0.60   1000.00    433.30    0.0902
  i6                   0.57   1000.00    433.30    0.0902
  10                   1.45   1000.00    433.30    0.1057
  src                 -4.05   1000.00      0.00    0.0000  Reservoir
   
   
  Link Results at 51:00:00 hrs:
  ----------------------------------------------
                       Flow  Velocity  Headloss
  Link                  gpm       fps   /1000ft
  ----------------------------------------------
  L1                 4.0500      0.03      0.00
  P1                 4.0500      0.03      0.00
  P2                 3.8543      0.02      0.00
  P3                 3.4102      0.02      0.00
  P4                 3.0543      0.02      0.00
  P5                 2.6190      0.02      0.00
  P6                 2.0146      0.01      0.00
  P7                 1.4490      0.01      0.00
   
   
  Node Results at 52:00:00 hrs:
  --------------------------------------------------------
                     Demand      Head  Pressure  Flouride
  Node                  gpm        ft       psi      mg/l
  --------------------------------------------------------
  8                    0.00   1000.00    433.30    0.0871
  i1                   0.21   1000.00    433.30    0.0871
  i2                   0.48   1000.00    433.30    0.0885
  i3                   0.39   1000.00    433.30    0.0885
  i4                   0.47   1000.00    433.30    0.0902
  i5                   0.66   1000.00    433.30    0.0902
  i6                   0.61   1000.00    433.30    0.0902
  10                   1.57   1000.00    433.30    0.1057
  src                 -4.40   1000.00      0.00    0.0000  Reservoir
   
   
  Link Results at 52:00:00 hrs:
  ----------------------------------------------
                       Flow  Velocity  Headloss
  Link                  gpm       fps   /1000ft
  ----------------------------------------------
  L1                 4.4001      0.03      0.00
  P1                 4.4000      0.03      0.00
  P2                 4.1874      0.03      0.00
  P3                 3.7049      0.02      0.00
  P4                 3.3182      0.02      0.00
  P5                 2.8453      0.02      0.00
  P6                 2.1887      0.01      0.00
  P7                 1.5742      0.01      0.00
   
   
  Node Results at 53:00:00 hrs:
  --------------------------------------------------------
                     Demand      Head  Pressure  Flouride
  Node                  gpm        ft       psi      mg/l
  --------------------------------------------------------
  8                    0.00   1000.00    433.30    0.0871
  i1                   0.20   1000.00    433.30    0.0871
  i2                   0.44   1000.00    433.30    0.0736
  i3                   0.36   1000.00    433.30    0.0884
  i4                   0.44   1000.00    433.30    0.8442
  i5                   0.60   1000.00    433.30    0.0902
  i6                   0.57   1000.00    433.30    0.0902
  10                   1.45   1000.00    433.30    0.0902
  src                 -4.05   1000.00      0.00    0.0000  Reservoir
   
   
  Link Results at 53:00:00 hrs:
  ----------------------------------------------
                       Flow  Velocity  Headloss
  Link                  gpm       fps   /1000ft
  ----------------------------------------------
  L1                 4.0500      0.03      0.00
  P1                 4.0500      0.03      0.00
  P2                 3.8543      0.02      0.00
  P3                 3.4102      0.02      0.00
  P4                 3.0543      0.02      0.00
  P5                 2.6190      0.02      0.00
  P6                 2.0146      0.01      0.00
  P7                 1.4490      0.01      0.00
   
   
  Node Results at 54:00:00 hrs:
  --------------------------------------------------------
                     Demand      Head  Pressure  Flouride
  Node                  gpm        ft       psi      mg/l
  --------------------------------------------------------
  8                    0.00   1000.00    433.30    0.0871
  i1                   0.20   1000.00    433.30    0.0871
  i2                   0.44   1000.00    433.30    0.0871
  i3                   0.36   1000.00    433.30    0.0736
  i4                   0.44   1000.00    433.30    0.0884
  i5                   0.60   1000.00    433.30    0.8441
  i6                   0.57   1000.00    433.30    0.0902
  10                   1.45   1000.00    433.30    0.0902
  src                 -4.05   1000.00      0.00    0.0000  Reservoir
   
   
  Link Results at 54:00:00 hrs:
  ----------------------------------------------
                       Flow  Velocity  Headloss
  Link                  gpm       fps   /1000ft
  ----------------------------------------------
  L1                 4.0500      0.03      0.00
  P1                 4.0500      0.03      0.00
  P2                 3.8543      0.02      0.00
  P3                 3.4102      0.02      0.00
  P4                 3.0543      0.02      0.00
  P5                 2.6190      0.02      0.00
  P6                 2.0146      0.01      0.00
  P7                 1.4490      0.01      0.00
   
   
  Node Results at 55:00:00 hrs:
  --------------------------------------------------------
                     Demand      Head  Pressure  Flouride
  Node                  gpm        ft       psi      mg/l
  --------------------------------------------------------
  8                    0.00   1000.00    433.30    0.0871
  i1                   0.30   1000.00    433.30    0.0871
  i2                   0.69   1000.00    433.30    0.0871
  i3                   0.55   1000.00    433.30    0.0736
  i4                   0.68   1000.00    433.30    0.0884
  i5                   0.94   1000.00    433.30    0.8441
  i6                   0.88   1000.00    433.30    0.0902
  10                   2.25   1000.00    433.30    0.0902
  src                 -6.30   1000.00      0.00    0.0000  Reservoir
   
   
  Link Results at 55:00:00 hrs:
  ----------------------------------------------
                       Flow  Velocity  Headloss
  Link                  gpm       fps   /1000ft
  ----------------------------------------------
  L1                 6.3000      0.04      0.00
  P1                 6.3000      0.04      0.00
  P2                 5.9956      0.04      0.00
  P3                 5.3048      0.03      0.00
  P4                 4.7511      0.03      0.00
  P5                 4.0740      0.03      0.00
  P6                 3.1339      0.02      0.00
  P7                 2.2540      0.01      0.00
   