  Page 1                                    Mon Jul 22 10:35:52 2019

  ******************************************************************
  *                           E P A N E T                          *
  *                   Hydraulic and Water Quality                  *
  *                   Analysis for Pipe Networks                   *
  *                         Version 2.2                            *
  ******************************************************************
  
  Analysis begun Mon Jul 22 10:35:52 2019

   
  Node Results at 0:00:00 hrs:
  --------------------------------------------------------
                     Demand      Head  Pressure  Chlorine
  Node                  gpm        ft       psi      mg/l
  --------------------------------------------------------
  8                    0.00   1000.00    433.30    0.2000
  i1                   0.30   1000.00    433.30    0.2000
  i2                   0.69   1000.00    433.30    0.2000
  i3                   0.55   1000.00    433.30    0.2000
  i4                   0.68   1000.00    433.30    0.2000
  i5                   0.94   1000.00    433.30    0.2000
  i6                   0.88   1000.00    433.30    0.2000
  10                   2.25   1000.00    433.30    0.2000
  src                 -6.30   1000.00      0.00    0.0000  Reservoir
   
   
  Link Results at 0:00:00 hrs:
  ----------------------------------------------
                       Flow  Velocity  Headloss
  Link                  gpm       fps   /1000ft
  ----------------------------------------------
  L1                 6.3000      0.04      0.00
  P1                 6.3000      0.04      0.00
  P2                 5.9956      0.04      0.00
  P3                 5.3048      0.03      0.00
  P4                 4.7511      0.03      0.00
  P5                 4.0740      0.03      0.00
  P6                 3.1339      0.02      0.00
  P7                 2.2540      0.01      0.00
   
   
  Node Results at 1:00:00 hrs:
  --------------------------------------------------------
                     Demand      Head  Pressure  Chlorine
  Node                  gpm        ft       psi      mg/l
  --------------------------------------------------------
  8                    0.00   1000.00    433.30    0.2000
  i1                   0.25   1000.00    433.30    0.1936
  i2                   0.57   1000.00    433.30    0.1917
  i3                   0.46   1000.00    433.30    0.1926
  i4                   0.56   1000.00    433.30    0.1932
  i5                   0.78   1000.00    433.30    0.1934
  i6                   0.73   1000.00    433.30    0.1935
  10                   1.86   1000.00    433.30    0.1937
  src                 -5.20   1000.00      0.00    0.0000  Reservoir
   
   
  Link Results at 1:00:00 hrs:
  ----------------------------------------------
                       Flow  Velocity  Headloss
  Link                  gpm       fps   /1000ft
  ----------------------------------------------
  L1                 5.2000      0.03      0.00
  P1                 5.2000      0.03      0.00
  P2                 4.9488      0.03      0.00
  P3                 4.3786      0.03      0.00
  P4                 3.9215      0.03      0.00
  P5                 3.3627      0.02      0.00
  P6                 2.5867      0.02      0.00
  P7                 1.8605      0.01      0.00
   
   
  Node Results at 2:00:00 hrs:
  --------------------------------------------------------
                     Demand      Head  Pressure  Chlorine
  Node                  gpm        ft       psi      mg/l
  --------------------------------------------------------
  8                    0.00   1000.00    433.30    0.1924
  i1                   0.23   1000.00    433.30    0.1884
  i2                   0.53   1000.00    433.30    0.1865
  i3                   0.43   1000.00    433.30    0.1861
  i4                   0.52   1000.00    433.30    0.1866
  i5                   0.72   1000.00    433.30    0.1869
  i6                   0.68   1000.00    433.30    0.1872
  10                   1.74   1000.00    433.30    0.1876
  src                 -4.85   1000.00      0.00    0.0000  Reservoir
   
   
  Link Results at 2:00:00 hrs:
  ----------------------------------------------
                       Flow  Velocity  Headloss
  Link                  gpm       fps   /1000ft
  ----------------------------------------------
  L1                 4.8500      0.03      0.00
  P1                 4.8500      0.03      0.00
  P2                 4.6157      0.03      0.00
  P3                 4.0838      0.03      0.00
  P4                 3.6576      0.02      0.00
  P5                 3.1363      0.02      0.00
  P6                 2.4126      0.02      0.00
  P7                 1.7352      0.01      0.00
   
   
  Node Results at 3:00:00 hrs:
  --------------------------------------------------------
                     Demand      Head  Pressure  Chlorine
  Node                  gpm        ft       psi      mg/l
  --------------------------------------------------------
  8                    0.00   1000.00    433.30    0.1852
  i1                   0.23   1000.00    433.30    0.1825
  i2                   0.53   1000.00    433.30    0.1813
  i3                   0.43   1000.00    433.30    0.1805
  i4                   0.52   1000.00    433.30    0.1805
  i5                   0.72   1000.00    433.30    0.1807
  i6                   0.68   1000.00    433.30    0.1811
  10                   1.74   1000.00    433.30    0.1817
  src                 -4.85   1000.00      0.00    0.0000  Reservoir
   
   
  Link Results at 3:00:00 hrs:
  ----------------------------------------------
                       Flow  Velocity  Headloss
  Link                  gpm       fps   /1000ft
  ----------------------------------------------
  L1                 4.8501      0.03      0.00
  P1                 4.8500      0.03      0.00
  P2                 4.6157      0.03      0.00
  P3                 4.0838      0.03      0.00
  P4                 3.6576      0.02      0.00
  P5                 3.1363      0.02      0.00
  P6                 2.4126      0.02      0.00
  P7                 1.7352      0.01      0.00
   
   
  Node Results at 4:00:00 hrs:
  --------------------------------------------------------
                     Demand      Head  Pressure  Chlorine
  Node                  gpm        ft       psi      mg/l
  --------------------------------------------------------
  8                    0.00   1000.00    433.30    0.1784
  i1                   0.21   1000.00    433.30    0.1763
  i2                   0.49   1000.00    433.30    0.1758
  i3                   0.39   1000.00    433.30    0.1751
  i4                   0.48   1000.00    433.30    0.1748
  i5                   0.66   1000.00    433.30    0.1748
  i6                   0.62   1000.00    433.30    0.1752
  10                   1.59   1000.00    433.30    0.1759
  src                 -4.45   1000.00      0.00    0.0000  Reservoir
   
   
  Link Results at 4:00:00 hrs:
  ----------------------------------------------
                       Flow  Velocity  Headloss
  Link                  gpm       fps   /1000ft
  ----------------------------------------------
  L1                 4.4500      0.03      0.00
  P1                 4.4500      0.03      0.00
  P2                 4.2350      0.03      0.00
  P3                 3.7470      0.02      0.00
  P4                 3.3559      0.02      0.00
  P5                 2.8777      0.02      0.00
  P6                 2.2136      0.01      0.00
  P7                 1.5921      0.01      0.00
   
   
  Node Results at 5:00:00 hrs:
  --------------------------------------------------------
                     Demand      Head  Pressure  Chlorine
  Node                  gpm        ft       psi      mg/l
  --------------------------------------------------------
  8                    0.00   1000.00    433.30    0.1719
  i1                   0.29   1000.00    433.30    0.1702
  i2                   0.65   1000.00    433.30    0.1702
  i3                   0.52   1000.00    433.30    0.1698
  i4                   0.64   1000.00    433.30    0.1694
  i5                   0.89   1000.00    433.30    0.1693
  i6                   0.83   1000.00    433.30    0.1696
  10                   2.13   1000.00    433.30    0.1703
  src                 -5.95   1000.00      0.00    0.0000  Reservoir
   
   
  Link Results at 5:00:00 hrs:
  ----------------------------------------------
                       Flow  Velocity  Headloss
  Link                  gpm       fps   /1000ft
  ----------------------------------------------
  L1                 5.9500      0.04      0.00
  P1                 5.9500      0.04      0.00
  P2                 5.6626      0.04      0.00
  P3                 5.0101      0.03      0.00
  P4                 4.4871      0.03      0.00
  P5                 3.8477      0.02      0.00
  P6                 2.9598      0.02      0.00
  P7                 2.1288      0.01      0.00
   
   
  Node Results at 6:00:00 hrs:
  --------------------------------------------------------
                     Demand      Head  Pressure  Chlorine
  Node                  gpm        ft       psi      mg/l
  --------------------------------------------------------
  8                    0.00   1000.00    433.30    0.1656
  i1                   0.31   1000.00    433.30    0.1626
  i2                   0.70   1000.00    433.30    0.1639
  i3                   0.56   1000.00    433.30    0.1642
  i4                   0.69   1000.00    433.30    0.1641
  i5                   0.96   1000.00    433.30    0.1639
  i6                   0.89   1000.00    433.30    0.1640
  10                   2.29   1000.00    433.30    0.1647
  src                 -6.40   1000.00      0.00    0.0000  Reservoir
   
   
  Link Results at 6:00:00 hrs:
  ----------------------------------------------
                       Flow  Velocity  Headloss
  Link                  gpm       fps   /1000ft
  ----------------------------------------------
  L1                 6.3999      0.04      0.00
  P1                 6.4000      0.04      0.00
  P2                 6.0908      0.04      0.00
  P3                 5.3890      0.03      0.00
  P4                 4.8265      0.03      0.00
  P5                 4.1387      0.03      0.00
  P6                 3.1836      0.02      0.00
  P7                 2.2898      0.01      0.00
   
   
  Node Results at 7:00:00 hrs:
  --------------------------------------------------------
                     Demand      Head  Pressure  Chlorine
  Node                  gpm        ft       psi      mg/l
  --------------------------------------------------------
  8                    0.00   1000.00    433.30    0.1594
  i1                   0.16   1000.00    433.30    0.1558
  i2                   0.37   1000.00    433.30    0.1559
  i3                   0.29   1000.00    433.30    0.1575
  i4                   0.36   1000.00    433.30    0.1584
  i5                   0.50   1000.00    433.30    0.1585
  i6                   0.47   1000.00    433.30    0.1586
  10                   1.20   1000.00    433.30    0.1592
  src                 -3.35   1000.00      0.00    0.0000  Reservoir
   
   
  Link Results at 7:00:00 hrs:
  ----------------------------------------------
                       Flow  Velocity  Headloss
  Link                  gpm       fps   /1000ft
  ----------------------------------------------
  L1                 3.3501      0.02      0.00
  P1                 3.3500      0.02      0.00
  P2                 3.1882      0.02      0.00
  P3                 2.8208      0.02      0.00
  P4                 2.5264      0.02      0.00
  P5                 2.1663      0.01      0.00
  P6                 1.6664      0.01      0.00
  P7                 1.1986      0.01      0.00
   
   
  Node Results at 8:00:00 hrs:
  --------------------------------------------------------
                     Demand      Head  Pressure  Chlorine
  Node                  gpm        ft       psi      mg/l
  --------------------------------------------------------
  8                    0.00   1000.00    433.30    0.1533
  i1                   0.16   1000.00    433.30    0.1510
  i2                   0.37   1000.00    433.30    0.1510
  i3                   0.29   1000.00    433.30    0.1518
  i4                   0.36   1000.00    433.30    0.1530
  i5                   0.50   1000.00    433.30    0.1534
  i6                   0.47   1000.00    433.30    0.1537
  10                   1.20   1000.00    433.30    0.1543
  src                 -3.35   1000.00      0.00    0.0000  Reservoir
   
   
  Link Results at 8:00:00 hrs:
  ----------------------------------------------
                       Flow  Velocity  Headloss
  Link                  gpm       fps   /1000ft
  ----------------------------------------------
  L1                 3.3500      0.02      0.00
  P1                 3.3500      0.02      0.00
  P2                 3.1882      0.02      0.00
  P3                 2.8208      0.02      0.00
  P4                 2.5264      0.02      0.00
  P5                 2.1663      0.01      0.00
  P6                 1.6664      0.01      0.00
  P7                 1.1986      0.01      0.00
   
   
  Node Results at 9:00:00 hrs:
  --------------------------------------------------------
                     Demand      Head  Pressure  Chlorine
  Node                  gpm        ft       psi      mg/l
  --------------------------------------------------------
  8                    0.00   1000.00    433.30    0.1479
  i1                   0.32   1000.00    433.30    0.1461
  i2                   0.73   1000.00    433.30    0.1462
  i3                   0.59   1000.00    433.30    0.1466
  i4                   0.72   1000.00    433.30    0.1478
  i5                   1.00   1000.00    433.30    0.1484
  i6                   0.94   1000.00    433.30    0.1488
  10                   2.40   1000.00    433.30    0.1495
  src                 -6.70   1000.00      0.00    0.0000  Reservoir
   
   
  Link Results at 9:00:00 hrs:
  ----------------------------------------------
                       Flow  Velocity  Headloss
  Link                  gpm       fps   /1000ft
  ----------------------------------------------
  L1                 6.6999      0.04      0.00
  P1                 6.7000      0.04      0.00
  P2                 6.3763      0.04      0.00
  P3                 5.6416      0.04      0.00
  P4                 5.0527      0.03      0.00
  P5                 4.3327      0.03      0.00
  P6                 3.3328      0.02      0.00
  P7                 2.3971      0.02      0.00
   
   
  Node Results at 10:00:00 hrs:
  --------------------------------------------------------
                     Demand      Head  Pressure  Chlorine
  Node                  gpm        ft       psi      mg/l
  --------------------------------------------------------
  8                    0.00   1000.00    433.30    0.2147
  i1                   0.59   1000.00    433.30    0.1396
  i2                   1.35   1000.00    433.30    0.1396
  i3                   1.08   1000.00    433.30    0.1408
  i4                   1.32   1000.00    433.30    0.1420
  i5                   1.84   1000.00    433.30    0.1428
  i6                   1.72   1000.00    433.30    0.1436
  10                   4.40   1000.00    433.30    0.1445
  src                -12.30   1000.00      0.00    0.0000  Reservoir
   
   
  Link Results at 10:00:00 hrs:
  ----------------------------------------------
                       Flow  Velocity  Headloss
  Link                  gpm       fps   /1000ft
  ----------------------------------------------
  L1                12.3000      0.08      0.00
  P1                12.3000      0.08      0.00
  P2                11.7058      0.07      0.00
  P3                10.3570      0.07      0.00
  P4                 9.2759      0.06      0.00
  P5                 7.9540      0.05      0.00
  P6                 6.1185      0.04      0.00
  P7                 4.4007      0.03      0.00
   
   
  Node Results at 11:00:00 hrs:
  --------------------------------------------------------
                     Demand      Head  Pressure  Chlorine
  Node                  gpm        ft       psi      mg/l
  --------------------------------------------------------
  8                    0.00   1000.00    433.30    0.6096
  i1                   0.23   1000.00    433.30    0.5895
  i2                   0.53   1000.00    433.30    0.1996
  i3                   0.43   1000.00    433.30    0.1332
  i4                   0.52   1000.00    433.30    0.1338
  i5                   0.72   1000.00    433.30    0.1347
  i6                   0.68   1000.00    433.30    0.1360
  10                   1.74   1000.00    433.30    0.1383
  src                 -4.85   1000.00      0.00    0.0000  Reservoir
   
   
  Link Results at 11:00:00 hrs:
  ----------------------------------------------
                       Flow  Velocity  Headloss
  Link                  gpm       fps   /1000ft
  ----------------------------------------------
  L1                 4.8500      0.03      0.00
  P1                 4.8500      0.03      0.00
  P2                 4.6157      0.03      0.00
  P3                 4.0838      0.03      0.00
  P4                 3.6576      0.02      0.00
  P5                 3.1363      0.02      0.00
  P6                 2.4126      0.02      0.00
  P7                 1.7352      0.01      0.00
   
   
  Node Results at 12:00:00 hrs:
  --------------------------------------------------------
                     Demand      Head  Pressure  Chlorine
  Node                  gpm        ft       psi      mg/l
  --------------------------------------------------------
  8                    0.00   1000.00    433.30    0.6517
  i1                   0.22   1000.00    433.30    0.5852
  i2                   0.50   1000.00    433.30    0.1933
  i3                   0.40   1000.00    433.30    0.1932
  i4                   0.49   1000.00    433.30    0.1293
  i5                   0.69   1000.00    433.30    0.1299
  i6                   0.64   1000.00    433.30    0.1311
  10                   1.65   1000.00    433.30    0.1333
  src                 -4.60   1000.00      0.00    0.0000  Reservoir
   
   
  Link Results at 12:00:00 hrs:
  ----------------------------------------------
                       Flow  Velocity  Headloss
  Link                  gpm       fps   /1000ft
  ----------------------------------------------
  L1                 4.6000      0.03      0.00
  P1                 4.6000      0.03      0.00
  P2                 4.3778      0.03      0.00
  P3                 3.8733      0.02      0.00
  P4                 3.4690      0.02      0.00
  P5                 2.9747      0.02      0.00
  P6                 2.2882      0.01      0.00
  P7                 1.6458      0.01      0.00
   
   
  Node Results at 13:00:00 hrs:
  --------------------------------------------------------
                     Demand      Head  Pressure  Chlorine
  Node                  gpm        ft       psi      mg/l
  --------------------------------------------------------
  8                    0.00   1000.00    433.30    0.6507
  i1                   0.16   1000.00    433.30    0.6205
  i2                   0.37   1000.00    433.30    0.5525
  i3                   0.30   1000.00    433.30    0.1868
  i4                   0.37   1000.00    433.30    0.1251
  i5                   0.51   1000.00    433.30    0.1254
  i6                   0.47   1000.00    433.30    0.1265
  10                   1.22   1000.00    433.30    0.1286
  src                 -3.40   1000.00      0.00    0.0000  Reservoir
   
   
  Link Results at 13:00:00 hrs:
  ----------------------------------------------
                       Flow  Velocity  Headloss
  Link                  gpm       fps   /1000ft
  ----------------------------------------------
  L1                 3.4001      0.02      0.00
  P1                 3.4000      0.02      0.00
  P2                 3.2357      0.02      0.00
  P3                 2.8629      0.02      0.00
  P4                 2.5641      0.02      0.00
  P5                 2.1987      0.01      0.00
  P6                 1.6913      0.01      0.00
  P7                 1.2165      0.01      0.00
   
   
  Node Results at 14:00:00 hrs:
  --------------------------------------------------------
                     Demand      Head  Pressure  Chlorine
  Node                  gpm        ft       psi      mg/l
  --------------------------------------------------------
  8                    0.00   1000.00    433.30    0.6391
  i1                   0.35   1000.00    433.30    0.6012
  i2                   0.78   1000.00    433.30    0.5352
  i3                   0.63   1000.00    433.30    0.5348
  i4                   0.77   1000.00    433.30    0.1538
  i5                   1.07   1000.00    433.30    0.1214
  i6                   1.00   1000.00    433.30    0.1222
  10                   2.56   1000.00    433.30    0.1242
  src                 -7.15   1000.00      0.00    0.0000  Reservoir
   
   
  Link Results at 14:00:00 hrs:
  ----------------------------------------------
                       Flow  Velocity  Headloss
  Link                  gpm       fps   /1000ft
  ----------------------------------------------
  L1                 7.1500      0.05      0.00
  P1                 7.1500      0.05      0.00
  P2                 6.8046      0.04      0.00
  P3                 6.0205      0.04      0.00
  P4                 5.3921      0.03      0.00
  P5                 4.6237      0.03      0.00
  P6                 3.5567      0.02      0.00
  P7                 2.5581      0.02      0.00
   
   
  Node Results at 15:00:00 hrs:
  --------------------------------------------------------
                     Demand      Head  Pressure  Chlorine
  Node                  gpm        ft       psi      mg/l
  --------------------------------------------------------
  8                    0.00   1000.00    433.30    0.6278
  i1                   0.15   1000.00    433.30    0.6035
  i2                   0.33   1000.00    433.30    0.5742
  i3                   0.27   1000.00    433.30    0.5244
  i4                   0.33   1000.00    433.30    0.5159
  i5                   0.46   1000.00    433.30    0.1174
  i6                   0.43   1000.00    433.30    0.1178
  10                   1.09   1000.00    433.30    0.1194
  src                 -3.05   1000.00      0.00    0.0000  Reservoir
   
   
  Link Results at 15:00:00 hrs:
  ----------------------------------------------
                       Flow  Velocity  Headloss
  Link                  gpm       fps   /1000ft
  ----------------------------------------------
  L1                 3.0500      0.02      0.00
  P1                 3.0500      0.02      0.00
  P2                 2.9027      0.02      0.00
  P3                 2.5682      0.02      0.00
  P4                 2.3001      0.01      0.00
  P5                 1.9723      0.01      0.00
  P6                 1.5172      0.01      0.00
  P7                 1.0912      0.01      0.00
   
   
  Node Results at 16:00:00 hrs:
  --------------------------------------------------------
                     Demand      Head  Pressure  Chlorine
  Node                  gpm        ft       psi      mg/l
  --------------------------------------------------------
  8                    0.00   1000.00    433.30    0.6110
  i1                   0.07   1000.00    433.30    0.5849
  i2                   0.17   1000.00    433.30    0.5736
  i3                   0.14   1000.00    433.30    0.5078
  i4                   0.17   1000.00    433.30    0.5023
  i5                   0.23   1000.00    433.30    0.1696
  i6                   0.22   1000.00    433.30    0.1142
  10                   0.55   1000.00    433.30    0.1156
  src                 -1.55   1000.00      0.00    0.0000  Reservoir
   
   
  Link Results at 16:00:00 hrs:
  ----------------------------------------------
                       Flow  Velocity  Headloss
  Link                  gpm       fps   /1000ft
  ----------------------------------------------
  L1                 1.5500      0.01      0.00
  P1                 1.5500      0.01      0.00
  P2                 1.4751      0.01      0.00
  P3                 1.3051      0.01      0.00
  P4                 1.1689      0.01      0.00
  P5                 1.0023      0.01      0.00
  P6                 0.7710      0.00      0.00
  P7                 0.5546      0.00      0.00
   
   
  Node Results at 17:00:00 hrs:
  --------------------------------------------------------
                     Demand      Head  Pressure  Chlorine
  Node                  gpm        ft       psi      mg/l
  --------------------------------------------------------
  8                    0.00   1000.00    433.30    0.5953
  i1                   0.19   1000.00    433.30    0.5677
  i2                   0.43   1000.00    433.30    0.5567
  i3                   0.34   1000.00    433.30    0.5394
  i4                   0.42   1000.00    433.30    0.4877
  i5                   0.58   1000.00    433.30    0.1645
  i6                   0.54   1000.00    433.30    0.1109
  10                   1.40   1000.00    433.30    0.1121
  src                 -3.90   1000.00      0.00    0.0000  Reservoir
   
   
  Link Results at 17:00:00 hrs:
  ----------------------------------------------
                       Flow  Velocity  Headloss
  Link                  gpm       fps   /1000ft
  ----------------------------------------------
  L1                 3.9000      0.02      0.00
  P1                 3.9000      0.02      0.00
  P2                 3.7116      0.02      0.00
  P3                 3.2839      0.02      0.00
  P4                 2.9411      0.02      0.00
  P5                 2.5220      0.02      0.00
  P6                 1.9400      0.01      0.00
  P7                 1.3953      0.01      0.00
   
   
  Node Results at 18:00:00 hrs:
  --------------------------------------------------------
                     Demand      Head  Pressure  Chlorine
  Node                  gpm        ft       psi      mg/l
  --------------------------------------------------------
  8                    0.00   1000.00    433.30    0.5579
  i1                   0.09   1000.00    433.30    0.5659
  i2                   0.20   1000.00    433.30    0.5497
  i3                   0.16   1000.00    433.30    0.5387
  i4                   0.20   1000.00    433.30    0.4723
  i5                   0.28   1000.00    433.30    0.4716
  i6                   0.26   1000.00    433.30    0.1074
  10                   0.66   1000.00    433.30    0.1084
  src                 -1.85   1000.00      0.00    0.0000  Reservoir
   
   
  Link Results at 18:00:00 hrs:
  ----------------------------------------------
                       Flow  Velocity  Headloss
  Link                  gpm       fps   /1000ft
  ----------------------------------------------
  L1                 1.8499      0.01      0.00
  P1                 1.8500      0.01      0.00
  P2                 1.7606      0.01      0.00
  P3                 1.5578      0.01      0.00
  P4                 1.3952      0.01      0.00
  P5                 1.1963      0.01      0.00
  P6                 0.9203      0.01      0.00
  P7                 0.6619      0.00      0.00
   
   
  Node Results at 19:00:00 hrs:
  --------------------------------------------------------
                     Demand      Head  Pressure  Chlorine
  Node                  gpm        ft       psi      mg/l
  --------------------------------------------------------
  8                    0.00   1000.00    433.30    0.5381
  i1                   0.16   1000.00    433.30    0.5490
  i2                   0.37   1000.00    433.30    0.5333
  i3                   0.29   1000.00    433.30    0.5222
  i4                   0.36   1000.00    433.30    0.4582
  i5                   0.50   1000.00    433.30    0.4576
  i6                   0.47   1000.00    433.30    0.1219
  10                   1.20   1000.00    433.30    0.1052
  src                 -3.35   1000.00      0.00    0.0000  Reservoir
   
   
  Link Results at 19:00:00 hrs:
  ----------------------------------------------
                       Flow  Velocity  Headloss
  Link                  gpm       fps   /1000ft
  ----------------------------------------------
  L1                 3.3500      0.02      0.00
  P1                 3.3500      0.02      0.00
  P2                 3.1882      0.02      0.00
  P3                 2.8208      0.02      0.00
  P4                 2.5264      0.02      0.00
  P5                 2.1663      0.01      0.00
  P6                 1.6664      0.01      0.00
  P7                 1.1986      0.01      0.00
   
   
  Node Results at 20:00:00 hrs:
  --------------------------------------------------------
                     Demand      Head  Pressure  Chlorine
  Node                  gpm        ft       psi      mg/l
  --------------------------------------------------------
  8                    0.00   1000.00    433.30    0.5244
  i1                   0.30   1000.00    433.30    0.5163
  i2                   0.69   1000.00    433.30    0.5166
  i3                   0.55   1000.00    433.30    0.5162
  i4                   0.68   1000.00    433.30    0.4907
  i5                   0.94   1000.00    433.30    0.4433
  i6                   0.88   1000.00    433.30    0.1499
  10                   2.25   1000.00    433.30    0.1021
  src                 -6.30   1000.00      0.00    0.0000  Reservoir
   
   
  Link Results at 20:00:00 hrs:
  ----------------------------------------------
                       Flow  Velocity  Headloss
  Link                  gpm       fps   /1000ft
  ----------------------------------------------
  L1                 6.3000      0.04      0.00
  P1                 6.3000      0.04      0.00
  P2                 5.9956      0.04      0.00
  P3                 5.3048      0.03      0.00
  P4                 4.7511      0.03      0.00
  P5                 4.0740      0.03      0.00
  P6                 3.1339      0.02      0.00
  P7                 2.2540      0.01      0.00
   
   
  Node Results at 21:00:00 hrs:
  --------------------------------------------------------
                     Demand      Head  Pressure  Chlorine
  Node                  gpm        ft       psi      mg/l
  --------------------------------------------------------
  8                    0.00   1000.00    433.30    0.5062
  i1                   0.38   1000.00    433.30    0.4930
  i2                   0.86   1000.00    433.30    0.5085
  i3                   0.69   1000.00    433.30    0.5083
  i4                   0.84   1000.00    433.30    0.4894
  i5                   1.16   1000.00    433.30    0.4746
  i6                   1.09   1000.00    433.30    0.4290
  10                   2.79   1000.00    433.30    0.0989
  src                 -7.80   1000.00      0.00    0.0000  Reservoir
   
   
  Link Results at 21:00:00 hrs:
  ----------------------------------------------
                       Flow  Velocity  Headloss
  Link                  gpm       fps   /1000ft
  ----------------------------------------------
  L1                 7.8000      0.05      0.00
  P1                 7.8000      0.05      0.00
  P2                 7.4232      0.05      0.00
  P3                 6.5678      0.04      0.00
  P4                 5.8823      0.04      0.00
  P5                 5.0440      0.03      0.00
  P6                 3.8800      0.02      0.00
  P7                 2.7907      0.02      0.00
   
   
  Node Results at 22:00:00 hrs:
  --------------------------------------------------------
                     Demand      Head  Pressure  Chlorine
  Node                  gpm        ft       psi      mg/l
  --------------------------------------------------------
  8                    0.00   1000.00    433.30    0.0907
  i1                   0.29   1000.00    433.30    0.4703
  i2                   0.65   1000.00    433.30    0.4705
  i3                   0.52   1000.00    433.30    0.4875
  i4                   0.64   1000.00    433.30    0.4828
  i5                   0.89   1000.00    433.30    0.4790
  i6                   0.83   1000.00    433.30    0.4150
  10                   2.13   1000.00    433.30    0.1406
  src                 -5.95   1000.00      0.00    0.0000  Reservoir
   
   
  Link Results at 22:00:00 hrs:
  ----------------------------------------------
                       Flow  Velocity  Headloss
  Link                  gpm       fps   /1000ft
  ----------------------------------------------
  L1                 5.9500      0.04      0.00
  P1                 5.9500      0.04      0.00
  P2                 5.6626      0.04      0.00
  P3                 5.0101      0.03      0.00
  P4                 4.4871      0.03      0.00
  P5                 3.8477      0.02      0.00
  P6                 2.9598      0.02      0.00
  P7                 2.1288      0.01      0.00
   
   
  Node Results at 23:00:00 hrs:
  --------------------------------------------------------
                     Demand      Head  Pressure  Chlorine
  Node                  gpm        ft       psi      mg/l
  --------------------------------------------------------
  8                    0.00   1000.00    433.30    0.4481
  i1                   0.30   1000.00    433.30    0.0847
  i2                   0.69   1000.00    433.30    0.4552
  i3                   0.55   1000.00    433.30    0.4550
  i4                   0.68   1000.00    433.30    0.4744
  i5                   0.94   1000.00    433.30    0.4635
  i6                   0.88   1000.00    433.30    0.4442
  10                   2.25   1000.00    433.30    0.4022
  src                 -6.30   1000.00      0.00    0.0000  Reservoir
   
   
  Link Results at 23:00:00 hrs:
  ----------------------------------------------
                       Flow  Velocity  Headloss
  Link                  gpm       fps   /1000ft
  ----------------------------------------------
  L1                 6.3000      0.04      0.00
  P1                 6.3000      0.04      0.00
  P2                 5.9956      0.04      0.00
  P3                 5.3048      0.03      0.00
  P4                 4.7511      0.03      0.00
  P5                 4.0740      0.03      0.00
  P6                 3.1339      0.02      0.00
  P7                 2.2540      0.01      0.00
   
   
  Node Results at 24:00:00 hrs:
  --------------------------------------------------------
                     Demand      Head  Pressure  Chlorine
  Node                  gpm        ft       psi      mg/l
  --------------------------------------------------------
  8                    0.00   1000.00    433.30    0.5976
  i1                   0.14   1000.00    433.30    0.4188
  i2                   0.33   1000.00    433.30    0.0812
  i3                   0.26   1000.00    433.30    0.4404
  i4                   0.32   1000.00    433.30    0.4402
  i5                   0.45   1000.00    433.30    0.4586
  i6                   0.42   1000.00    433.30    0.4484
  10                   1.07   1000.00    433.30    0.3896
  src                 -3.00   1000.00      0.00    0.0000  Reservoir
   
   
  Link Results at 24:00:00 hrs:
  ----------------------------------------------
                       Flow  Velocity  Headloss
  Link                  gpm       fps   /1000ft
  ----------------------------------------------
  L1                 3.0000      0.02      0.00
  P1                 3.0000      0.02      0.00
  P2                 2.8551      0.02      0.00
  P3                 2.5261      0.02      0.00
  P4                 2.2624      0.01      0.00
  P5                 1.9400      0.01      0.00
  P6                 1.4923      0.01      0.00
  P7                 1.0733      0.01      0.00
   
   
  Node Results at 25:00:00 hrs:
  --------------------------------------------------------
                     Demand      Head  Pressure  Chlorine
  Node                  gpm        ft       psi      mg/l
  --------------------------------------------------------
  8                    0.00   1000.00    433.30    0.6031
  i1                   0.27   1000.00    433.30    0.5630
  i2                   0.60   1000.00    433.30    0.0787
  i3                   0.48   1000.00    433.30    0.4264
  i4                   0.59   1000.00    433.30    0.4266
  i5                   0.82   1000.00    433.30    0.4443
  i6                   0.77   1000.00    433.30    0.4347
  10                   1.97   1000.00    433.30    0.3780
  src                 -5.50   1000.00      0.00    0.0000  Reservoir
   
   
  Link Results at 25:00:00 hrs:
  ----------------------------------------------
                       Flow  Velocity  Headloss
  Link                  gpm       fps   /1000ft
  ----------------------------------------------
  L1                 5.5000      0.04      0.00
  P1                 5.5000      0.04      0.00
  P2                 5.2343      0.03      0.00
  P3                 4.6312      0.03      0.00
  P4                 4.1478      0.03      0.00
  P5                 3.5567      0.02      0.00
  P6                 2.7359      0.02      0.00
  P7                 1.9678      0.01      0.00
   
   
  Node Results at 26:00:00 hrs:
  --------------------------------------------------------
                     Demand      Head  Pressure  Chlorine
  Node                  gpm        ft       psi      mg/l
  --------------------------------------------------------
  8                    0.00   1000.00    433.30    0.6099
  i1                   0.25   1000.00    433.30    0.5601
  i2                   0.56   1000.00    433.30    0.3928
  i3                   0.45   1000.00    433.30    0.0761
  i4                   0.55   1000.00    433.30    0.4128
  i5                   0.77   1000.00    433.30    0.4127
  i6                   0.72   1000.00    433.30    0.4303
  10                   1.84   1000.00    433.30    0.4044
  src                 -5.15   1000.00      0.00    0.0000  Reservoir
   
   
  Link Results at 26:00:00 hrs:
  ----------------------------------------------
                       Flow  Velocity  Headloss
  Link                  gpm       fps   /1000ft
  ----------------------------------------------
  L1                 5.1500      0.03      0.00
  P1                 5.1500      0.03      0.00
  P2                 4.9012      0.03      0.00
  P3                 4.3365      0.03      0.00
  P4                 3.8838      0.02      0.00
  P5                 3.3304      0.02      0.00
  P6                 2.5618      0.02      0.00
  P7                 1.8426      0.01      0.00
   
   
  Node Results at 27:00:00 hrs:
  --------------------------------------------------------
                     Demand      Head  Pressure  Chlorine
  Node                  gpm        ft       psi      mg/l
  --------------------------------------------------------
  8                    0.00   1000.00    433.30    0.6175
  i1                   0.18   1000.00    433.30    0.5810
  i2                   0.40   1000.00    433.30    0.5274
  i3                   0.32   1000.00    433.30    0.3798
  i4                   0.39   1000.00    433.30    0.0737
  i5                   0.54   1000.00    433.30    0.3993
  i6                   0.51   1000.00    433.30    0.4167
  10                   1.31   1000.00    433.30    0.4120
  src                 -3.65   1000.00      0.00    0.0000  Reservoir
   
   
  Link Results at 27:00:00 hrs:
  ----------------------------------------------
                       Flow  Velocity  Headloss
  Link                  gpm       fps   /1000ft
  ----------------------------------------------
  L1                 3.6500      0.02      0.00
  P1                 3.6500      0.02      0.00
  P2                 3.4737      0.02      0.00
  P3                 3.0734      0.02      0.00
  P4                 2.7526      0.02      0.00
  P5                 2.3603      0.02      0.00
  P6                 1.8157      0.01      0.00
  P7                 1.3059      0.01      0.00
   
   
  Node Results at 28:00:00 hrs:
  --------------------------------------------------------
                     Demand      Head  Pressure  Chlorine
  Node                  gpm        ft       psi      mg/l
  --------------------------------------------------------
  8                    0.00   1000.00    433.30    0.5826
  i1                   0.21   1000.00    433.30    0.5628
  i2                   0.48   1000.00    433.30    0.5250
  i3                   0.39   1000.00    433.30    0.4473
  i4                   0.47   1000.00    433.30    0.0714
  i5                   0.66   1000.00    433.30    0.3867
  i6                   0.61   1000.00    433.30    0.3870
  10                   1.57   1000.00    433.30    0.3997
  src                 -4.40   1000.00      0.00    0.0000  Reservoir
   
   
  Link Results at 28:00:00 hrs:
  ----------------------------------------------
                       Flow  Velocity  Headloss
  Link                  gpm       fps   /1000ft
  ----------------------------------------------
  L1                 4.4000      0.03      0.00
  P1                 4.4000      0.03      0.00
  P2                 4.1874      0.03      0.00
  P3                 3.7049      0.02      0.00
  P4                 3.3182      0.02      0.00
  P5                 2.8453      0.02      0.00
  P6                 2.1887      0.01      0.00
  P7                 1.5742      0.01      0.00
   
   
  Node Results at 29:00:00 hrs:
  --------------------------------------------------------
                     Demand      Head  Pressure  Chlorine
  Node                  gpm        ft       psi      mg/l
  --------------------------------------------------------
  8                    0.00   1000.00    433.30    0.5453
  i1                   0.26   1000.00    433.30    0.5701
  i2                   0.58   1000.00    433.30    0.5449
  i3                   0.47   1000.00    433.30    0.4940
  i4                   0.57   1000.00    433.30    0.3561
  i5                   0.79   1000.00    433.30    0.0692
  i6                   0.74   1000.00    433.30    0.3748
  10                   1.90   1000.00    433.30    0.3875
  src                 -5.30   1000.00      0.00    0.0000  Reservoir
   
   
  Link Results at 29:00:00 hrs:
  ----------------------------------------------
                       Flow  Velocity  Headloss
  Link                  gpm       fps   /1000ft
  ----------------------------------------------
  L1                 5.3001      0.03      0.00
  P1                 5.3000      0.03      0.00
  P2                 5.0440      0.03      0.00
  P3                 4.4628      0.03      0.00
  P4                 3.9969      0.03      0.00
  P5                 3.4274      0.02      0.00
  P6                 2.6364      0.02      0.00
  P7                 1.8962      0.01      0.00
   
   
  Node Results at 30:00:00 hrs:
  --------------------------------------------------------
                     Demand      Head  Pressure  Chlorine
  Node                  gpm        ft       psi      mg/l
  --------------------------------------------------------
  8                    0.00   1000.00    433.30    0.5255
  i1                   0.24   1000.00    433.30    0.5195
  i2                   0.54   1000.00    433.30    0.5517
  i3                   0.44   1000.00    433.30    0.5270
  i4                   0.53   1000.00    433.30    0.4782
  i5                   0.74   1000.00    433.30    0.0728
  i6                   0.69   1000.00    433.30    0.3629
  10                   1.77   1000.00    433.30    0.3754
  src                 -4.95   1000.00      0.00    0.0000  Reservoir
   
   
  Link Results at 30:00:00 hrs:
  ----------------------------------------------
                       Flow  Velocity  Headloss
  Link                  gpm       fps   /1000ft
  ----------------------------------------------
  L1                 4.9500      0.03      0.00
  P1                 4.9500      0.03      0.00
  P2                 4.7109      0.03      0.00
  P3                 4.1680      0.03      0.00
  P4                 3.7330      0.02      0.00
  P5                 3.2010      0.02      0.00
  P6                 2.4623      0.02      0.00
  P7                 1.7710      0.01      0.00
   
   
  Node Results at 31:00:00 hrs:
  --------------------------------------------------------
                     Demand      Head  Pressure  Chlorine
  Node                  gpm        ft       psi      mg/l
  --------------------------------------------------------
  8                    0.00   1000.00    433.30    0.5059
  i1                   0.42   1000.00    433.30    0.5006
  i2                   0.94   1000.00    433.30    0.5203
  i3                   0.76   1000.00    433.30    0.5097
  i4                   0.92   1000.00    433.30    0.4758
  i5                   1.28   1000.00    433.30    0.3334
  i6                   1.20   1000.00    433.30    0.0649
  10                   3.08   1000.00    433.30    0.3521
  src                 -8.60   1000.00      0.00    0.0000  Reservoir
   
   
  Link Results at 31:00:00 hrs:
  ----------------------------------------------
                       Flow  Velocity  Headloss
  Link                  gpm       fps   /1000ft
  ----------------------------------------------
  L1                 8.6000      0.05      0.00
  P1                 8.6000      0.05      0.00
  P2                 8.1845      0.05      0.00
  P3                 7.2415      0.05      0.00
  P4                 6.4856      0.04      0.00
  P5                 5.5614      0.04      0.00
  P6                 4.2780      0.03      0.00
  P7                 3.0769      0.02      0.00
   
   
  Node Results at 32:00:00 hrs:
  --------------------------------------------------------
                     Demand      Head  Pressure  Chlorine
  Node                  gpm        ft       psi      mg/l
  --------------------------------------------------------
  8                    0.00   1000.00    433.30    0.1075
  i1                   0.27   1000.00    433.30    0.4746
  i2                   0.61   1000.00    433.30    0.4769
  i3                   0.49   1000.00    433.30    0.4966
  i4                   0.60   1000.00    433.30    0.5095
  i5                   0.84   1000.00    433.30    0.4722
  i6                   0.78   1000.00    433.30    0.3224
  10                   2.00   1000.00    433.30    0.3408
  src                 -5.60   1000.00      0.00    0.0000  Reservoir
   
   
  Link Results at 32:00:00 hrs:
  ----------------------------------------------
                       Flow  Velocity  Headloss
  Link                  gpm       fps   /1000ft
  ----------------------------------------------
  L1                 5.6000      0.04      0.00
  P1                 5.6000      0.04      0.00
  P2                 5.3295      0.03      0.00
  P3                 4.7154      0.03      0.00
  P4                 4.2232      0.03      0.00
  P5                 3.6214      0.02      0.00
  P6                 2.7857      0.02      0.00
  P7                 2.0036      0.01      0.00
   
   
  Node Results at 33:00:00 hrs:
  --------------------------------------------------------
                     Demand      Head  Pressure  Chlorine
  Node                  gpm        ft       psi      mg/l
  --------------------------------------------------------
  8                    0.00   1000.00    433.30    0.1032
  i1                   0.32   1000.00    433.30    0.1017
  i2                   0.73   1000.00    433.30    0.4614
  i3                   0.59   1000.00    433.30    0.4616
  i4                   0.72   1000.00    433.30    0.4803
  i5                   1.00   1000.00    433.30    0.4734
  i6                   0.94   1000.00    433.30    0.4332
  10                   2.40   1000.00    433.30    0.0608
  src                 -6.70   1000.00      0.00    0.0000  Reservoir
   
   
  Link Results at 33:00:00 hrs:
  ----------------------------------------------
                       Flow  Velocity  Headloss
  Link                  gpm       fps   /1000ft
  ----------------------------------------------
  L1                 6.7000      0.04      0.00
  P1                 6.7000      0.04      0.00
  P2                 6.3763      0.04      0.00
  P3                 5.6416      0.04      0.00
  P4                 5.0527      0.03      0.00
  P5                 4.3327      0.03      0.00
  P6                 3.3328      0.02      0.00
  P7                 2.3971      0.02      0.00
   
   
  Node Results at 34:00:00 hrs:
  --------------------------------------------------------
                     Demand      Head  Pressure  Chlorine
  Node                  gpm        ft       psi      mg/l
  --------------------------------------------------------
  8                    0.00   1000.00    433.30    0.5107
  i1                   0.27   1000.00    433.30    0.0971
  i2                   0.61   1000.00    433.30    0.0970
  i3                   0.49   1000.00    433.30    0.4455
  i4                   0.60   1000.00    433.30    0.4462
  i5                   0.84   1000.00    433.30    0.4766
  i6                   0.78   1000.00    433.30    0.4581
  10                   2.00   1000.00    433.30    0.3024
  src                 -5.60   1000.00      0.00    0.0000  Reservoir
   
   
  Link Results at 34:00:00 hrs:
  ----------------------------------------------
                       Flow  Velocity  Headloss
  Link                  gpm       fps   /1000ft
  ----------------------------------------------
  L1                 5.6001      0.04      0.00
  P1                 5.6000      0.04      0.00
  P2                 5.3295      0.03      0.00
  P3                 4.7154      0.03      0.00
  P4                 4.2232      0.03      0.00
  P5                 3.6214      0.02      0.00
  P6                 2.7857      0.02      0.00
  P7                 2.0036      0.01      0.00
   
   
  Node Results at 35:00:00 hrs:
  --------------------------------------------------------
                     Demand      Head  Pressure  Chlorine
  Node                  gpm        ft       psi      mg/l
  --------------------------------------------------------
  8                    0.00   1000.00    433.30    0.6102
  i1                   0.23   1000.00    433.30    0.4816
  i2                   0.53   1000.00    433.30    0.0939
  i3                   0.43   1000.00    433.30    0.0939
  i4                   0.52   1000.00    433.30    0.4315
  i5                   0.72   1000.00    433.30    0.4316
  i6                   0.68   1000.00    433.30    0.4612
  10                   1.74   1000.00    433.30    0.4065
  src                 -4.85   1000.00      0.00    0.0000  Reservoir
   
   
  Link Results at 35:00:00 hrs:
  ----------------------------------------------
                       Flow  Velocity  Headloss
  Link                  gpm       fps   /1000ft
  ----------------------------------------------
  L1                 4.8500      0.03      0.00
  P1                 4.8500      0.03      0.00
  P2                 4.6157      0.03      0.00
  P3                 4.0838      0.03      0.00
  P4                 3.6576      0.02      0.00
  P5                 3.1363      0.02      0.00
  P6                 2.4126      0.02      0.00
  P7                 1.7352      0.01      0.00
   
   
  Node Results at 36:00:00 hrs:
  --------------------------------------------------------
                     Demand      Head  Pressure  Chlorine
  Node                  gpm        ft       psi      mg/l
  --------------------------------------------------------
  8                    0.00   1000.00    433.30    0.6297
  i1                   0.25   1000.00    433.30    0.5813
  i2                   0.57   1000.00    433.30    0.0909
  i3                   0.46   1000.00    433.30    0.0909
  i4                   0.56   1000.00    433.30    0.4176
  i5                   0.78   1000.00    433.30    0.4176
  i6                   0.73   1000.00    433.30    0.4353
  10                   1.86   1000.00    433.30    0.4050
  src                 -5.20   1000.00      0.00    0.0000  Reservoir
   
   
  Link Results at 36:00:00 hrs:
  ----------------------------------------------
                       Flow  Velocity  Headloss
  Link                  gpm       fps   /1000ft
  ----------------------------------------------
  L1                 5.2000      0.03      0.00
  P1                 5.2000      0.03      0.00
  P2                 4.9488      0.03      0.00
  P3                 4.3786      0.03      0.00
  P4                 3.9215      0.03      0.00
  P5                 3.3627      0.02      0.00
  P6                 2.5867      0.02      0.00
  P7                 1.8605      0.01      0.00
   
   
  Node Results at 37:00:00 hrs:
  --------------------------------------------------------
                     Demand      Head  Pressure  Chlorine
  Node                  gpm        ft       psi      mg/l
  --------------------------------------------------------
  8                    0.00   1000.00    433.30    0.6371
  i1                   0.28   1000.00    433.30    0.5997
  i2                   0.63   1000.00    433.30    0.4512
  i3                   0.51   1000.00    433.30    0.0879
  i4                   0.62   1000.00    433.30    0.0880
  i5                   0.86   1000.00    433.30    0.4041
  i6                   0.80   1000.00    433.30    0.4045
  10                   2.06   1000.00    433.30    0.4168
  src                 -5.75   1000.00      0.00    0.0000  Reservoir
   
   
  Link Results at 37:00:00 hrs:
  ----------------------------------------------
                       Flow  Velocity  Headloss
  Link                  gpm       fps   /1000ft
  ----------------------------------------------
  L1                 5.7501      0.04      0.00
  P1                 5.7500      0.04      0.00
  P2                 5.4722      0.03      0.00
  P3                 4.8417      0.03      0.00
  P4                 4.3363      0.03      0.00
  P5                 3.7184      0.02      0.00
  P6                 2.8603      0.02      0.00
  P7                 2.0572      0.01      0.00
   
   
  Node Results at 38:00:00 hrs:
  --------------------------------------------------------
                     Demand      Head  Pressure  Chlorine
  Node                  gpm        ft       psi      mg/l
  --------------------------------------------------------
  8                    0.00   1000.00    433.30    0.6361
  i1                   0.22   1000.00    433.30    0.6058
  i2                   0.50   1000.00    433.30    0.5444
  i3                   0.40   1000.00    433.30    0.4362
  i4                   0.49   1000.00    433.30    0.0852
  i5                   0.68   1000.00    433.30    0.0851
  i6                   0.64   1000.00    433.30    0.3914
  10                   1.63   1000.00    433.30    0.4194
  src                 -4.55   1000.00      0.00    0.0000  Reservoir
   
   
  Link Results at 38:00:00 hrs:
  ----------------------------------------------
                       Flow  Velocity  Headloss
  Link                  gpm       fps   /1000ft
  ----------------------------------------------
  L1                 4.5500      0.03      0.00
  P1                 4.5500      0.03      0.00
  P2                 4.3302      0.03      0.00
  P3                 3.8312      0.02      0.00
  P4                 3.4313      0.02      0.00
  P5                 2.9423      0.02      0.00
  P6                 2.2634      0.01      0.00
  P7                 1.6279      0.01      0.00
   
   
  Node Results at 39:00:00 hrs:
  --------------------------------------------------------
                     Demand      Head  Pressure  Chlorine
  Node                  gpm        ft       psi      mg/l
  --------------------------------------------------------
  8                    0.00   1000.00    433.30    0.6421
  i1                   0.15   1000.00    433.30    0.6045
  i2                   0.33   1000.00    433.30    0.5617
  i3                   0.27   1000.00    433.30    0.5264
  i4                   0.33   1000.00    433.30    0.4235
  i5                   0.46   1000.00    433.30    0.0824
  i6                   0.43   1000.00    433.30    0.3791
  10                   1.09   1000.00    433.30    0.3958
  src                 -3.05   1000.00      0.00    0.0000  Reservoir
   
   
  Link Results at 39:00:00 hrs:
  ----------------------------------------------
                       Flow  Velocity  Headloss
  Link                  gpm       fps   /1000ft
  ----------------------------------------------
  L1                 3.0500      0.02      0.00
  P1                 3.0500      0.02      0.00
  P2                 2.9027      0.02      0.00
  P3                 2.5682      0.02      0.00
  P4                 2.3001      0.01      0.00
  P5                 1.9723      0.01      0.00
  P6                 1.5172      0.01      0.00
  P7                 1.0912      0.01      0.00
   
   
  Node Results at 40:00:00 hrs:
  --------------------------------------------------------
                     Demand      Head  Pressure  Chlorine
  Node                  gpm        ft       psi      mg/l
  --------------------------------------------------------
  8                    0.00   1000.00    433.30    0.6188
  i1                   0.16   1000.00    433.30    0.5859
  i2                   0.37   1000.00    433.30    0.5683
  i3                   0.30   1000.00    433.30    0.5097
  i4                   0.37   1000.00    433.30    0.4104
  i5                   0.51   1000.00    433.30    0.0798
  i6                   0.47   1000.00    433.30    0.0799
  10                   1.22   1000.00    433.30    0.3681
  src                 -3.40   1000.00      0.00    0.0000  Reservoir
   
   
  Link Results at 40:00:00 hrs:
  ----------------------------------------------
                       Flow  Velocity  Headloss
  Link                  gpm       fps   /1000ft
  ----------------------------------------------
  L1                 3.4000      0.02      0.00
  P1                 3.4000      0.02      0.00
  P2                 3.2357      0.02      0.00
  P3                 2.8629      0.02      0.00
  P4                 2.5641      0.02      0.00
  P5                 2.1987      0.01      0.00
  P6                 1.6913      0.01      0.00
  P7                 1.2165      0.01      0.00
   
   
  Node Results at 41:00:00 hrs:
  --------------------------------------------------------
                     Demand      Head  Pressure  Chlorine
  Node                  gpm        ft       psi      mg/l
  --------------------------------------------------------
  8                    0.00   1000.00    433.30    0.6028
  i1                   0.11   1000.00    433.30    0.5893
  i2                   0.25   1000.00    433.30    0.5506
  i3                   0.20   1000.00    433.30    0.5265
  i4                   0.25   1000.00    433.30    0.4941
  i5                   0.34   1000.00    433.30    0.0773
  i6                   0.32   1000.00    433.30    0.0774
  10                   0.82   1000.00    433.30    0.3571
  src                 -2.30   1000.00      0.00    0.0000  Reservoir
   
   
  Link Results at 41:00:00 hrs:
  ----------------------------------------------
                       Flow  Velocity  Headloss
  Link                  gpm       fps   /1000ft
  ----------------------------------------------
  L1                 2.2999      0.01      0.00
  P1                 2.3000      0.01      0.00
  P2                 2.1889      0.01      0.00
  P3                 1.9367      0.01      0.00
  P4                 1.7345      0.01      0.00
  P5                 1.4873      0.01      0.00
  P6                 1.1441      0.01      0.00
  P7                 0.8229      0.01      0.00
   
   
  Node Results at 42:00:00 hrs:
  --------------------------------------------------------
                     Demand      Head  Pressure  Chlorine
  Node                  gpm        ft       psi      mg/l
  --------------------------------------------------------
  8                    0.00   1000.00    433.30    0.5818
  i1                   0.12   1000.00    433.30    0.5827
  i2                   0.28   1000.00    433.30    0.5502
  i3                   0.22   1000.00    433.30    0.5331
  i4                   0.27   1000.00    433.30    0.4790
  i5                   0.38   1000.00    433.30    0.3853
  i6                   0.36   1000.00    433.30    0.0751
  10                   0.91   1000.00    433.30    0.3466
  src                 -2.55   1000.00      0.00    0.0000  Reservoir
   
   
  Link Results at 42:00:00 hrs:
  ----------------------------------------------
                       Flow  Velocity  Headloss
  Link                  gpm       fps   /1000ft
  ----------------------------------------------
  L1                 2.5501      0.02      0.00
  P1                 2.5500      0.02      0.00
  P2                 2.4268      0.02      0.00
  P3                 2.1472      0.01      0.00
  P4                 1.9231      0.01      0.00
  P5                 1.6490      0.01      0.00
  P6                 1.2685      0.01      0.00
  P7                 0.9123      0.01      0.00
   
   
  Node Results at 43:00:00 hrs:
  --------------------------------------------------------
                     Demand      Head  Pressure  Chlorine
  Node                  gpm        ft       psi      mg/l
  --------------------------------------------------------
  8                    0.00   1000.00    433.30    0.5669
  i1                   0.18   1000.00    433.30    0.5563
  i2                   0.41   1000.00    433.30    0.5334
  i3                   0.33   1000.00    433.30    0.5164
  i4                   0.40   1000.00    433.30    0.4644
  i5                   0.55   1000.00    433.30    0.3734
  i6                   0.52   1000.00    433.30    0.0728
  10                   1.32   1000.00    433.30    0.3364
  src                 -3.70   1000.00      0.00    0.0000  Reservoir
   
   
  Link Results at 43:00:00 hrs:
  ----------------------------------------------
                       Flow  Velocity  Headloss
  Link                  gpm       fps   /1000ft
  ----------------------------------------------
  L1                 3.7000      0.02      0.00
  P1                 3.7000      0.02      0.00
  P2                 3.5213      0.02      0.00
  P3                 3.1155      0.02      0.00
  P4                 2.7903      0.02      0.00
  P5                 2.3927      0.02      0.00
  P6                 1.8405      0.01      0.00
  P7                 1.3238      0.01      0.00
   
   
  Node Results at 44:00:00 hrs:
  --------------------------------------------------------
                     Demand      Head  Pressure  Chlorine
  Node                  gpm        ft       psi      mg/l
  --------------------------------------------------------
  8                    0.00   1000.00    433.30    0.5523
  i1                   0.27   1000.00    433.30    0.5389
  i2                   0.61   1000.00    433.30    0.5364
  i3                   0.49   1000.00    433.30    0.5160
  i4                   0.60   1000.00    433.30    0.4793
  i5                   0.84   1000.00    433.30    0.4496
  i6                   0.78   1000.00    433.30    0.0706
  10                   2.00   1000.00    433.30    0.3262
  src                 -5.60   1000.00      0.00    0.0000  Reservoir
   
   
  Link Results at 44:00:00 hrs:
  ----------------------------------------------
                       Flow  Velocity  Headloss
  Link                  gpm       fps   /1000ft
  ----------------------------------------------
  L1                 5.6000      0.04      0.00
  P1                 5.6000      0.04      0.00
  P2                 5.3295      0.03      0.00
  P3                 4.7154      0.03      0.00
  P4                 4.2232      0.03      0.00
  P5                 3.6214      0.02      0.00
  P6                 2.7857      0.02      0.00
  P7                 2.0036      0.01      0.00
   
   
  Node Results at 45:00:00 hrs:
  --------------------------------------------------------
                     Demand      Head  Pressure  Chlorine
  Node                  gpm        ft       psi      mg/l
  --------------------------------------------------------
  8                    0.00   1000.00    433.30    0.5136
  i1                   0.32   1000.00    433.30    0.5236
  i2                   0.73   1000.00    433.30    0.5232
  i3                   0.59   1000.00    433.30    0.5209
  i4                   0.72   1000.00    433.30    0.4842
  i5                   1.00   1000.00    433.30    0.4636
  i6                   0.94   1000.00    433.30    0.3504
  10                   2.40   1000.00    433.30    0.0685
  src                 -6.70   1000.00      0.00    0.0000  Reservoir
   
   
  Link Results at 45:00:00 hrs:
  ----------------------------------------------
                       Flow  Velocity  Headloss
  Link                  gpm       fps   /1000ft
  ----------------------------------------------
  L1                 6.7000      0.04      0.00
  P1                 6.7000      0.04      0.00
  P2                 6.3763      0.04      0.00
  P3                 5.6416      0.04      0.00
  P4                 5.0527      0.03      0.00
  P5                 4.3327      0.03      0.00
  P6                 3.3328      0.02      0.00
  P7                 2.3971      0.02      0.00
   
   
  Node Results at 46:00:00 hrs:
  --------------------------------------------------------
                     Demand      Head  Pressure  Chlorine
  Node                  gpm        ft       psi      mg/l
  --------------------------------------------------------
  8                    0.00   1000.00    433.30    0.4943
  i1                   0.30   1000.00    433.30    0.4827
  i2                   0.69   1000.00    433.30    0.5001
  i3                   0.55   1000.00    433.30    0.5027
  i4                   0.68   1000.00    433.30    0.5035
  i5                   0.94   1000.00    433.30    0.4682
  i6                   0.88   1000.00    433.30    0.4212
  10                   2.25   1000.00    433.30    0.0663
  src                 -6.30   1000.00      0.00    0.0000  Reservoir
   
   
  Link Results at 46:00:00 hrs:
  ----------------------------------------------
                       Flow  Velocity  Headloss
  Link                  gpm       fps   /1000ft
  ----------------------------------------------
  L1                 6.3000      0.04      0.00
  P1                 6.3000      0.04      0.00
  P2                 5.9956      0.04      0.00
  P3                 5.3048      0.03      0.00
  P4                 4.7511      0.03      0.00
  P5                 4.0740      0.03      0.00
  P6                 3.1339      0.02      0.00
  P7                 2.2540      0.01      0.00
   
   
  Node Results at 47:00:00 hrs:
  --------------------------------------------------------
                     Demand      Head  Pressure  Chlorine
  Node                  gpm        ft       psi      mg/l
  --------------------------------------------------------
  8                    0.00   1000.00    433.30    0.1116
  i1                   0.23   1000.00    433.30    0.4606
  i2                   0.53   1000.00    433.30    0.4611
  i3                   0.43   1000.00    433.30    0.4833
  i4                   0.52   1000.00    433.30    0.4855
  i5                   0.72   1000.00    433.30    0.4669
  i6                   0.68   1000.00    433.30    0.4341
  10                   1.74   1000.00    433.30    0.3287
  src                 -4.85   1000.00      0.00    0.0000  Reservoir
   
   
  Link Results at 47:00:00 hrs:
  ----------------------------------------------
                       Flow  Velocity  Headloss
  Link                  gpm       fps   /1000ft
  ----------------------------------------------
  L1                 4.8501      0.03      0.00
  P1                 4.8500      0.03      0.00
  P2                 4.6157      0.03      0.00
  P3                 4.0838      0.03      0.00
  P4                 3.6576      0.02      0.00
  P5                 3.1363      0.02      0.00
  P6                 2.4126      0.02      0.00
  P7                 1.7352      0.01      0.00
   
   
  Node Results at 48:00:00 hrs:
  --------------------------------------------------------
                     Demand      Head  Pressure  Chlorine
  Node                  gpm        ft       psi      mg/l
  --------------------------------------------------------
  8                    0.00   1000.00    433.30    0.4522
  i1                   0.20   1000.00    433.30    0.1057
  i2                   0.45   1000.00    433.30    0.4462
  i3                   0.36   1000.00    433.30    0.4674
  i4                   0.44   1000.00    433.30    0.4689
  i5                   0.61   1000.00    433.30    0.4700
  i6                   0.57   1000.00    433.30    0.4388
  10                   1.47   1000.00    433.30    0.3956
  src                 -4.10   1000.00      0.00    0.0000  Reservoir
   
   
  Link Results at 48:00:00 hrs:
  ----------------------------------------------
                       Flow  Velocity  Headloss
  Link                  gpm       fps   /1000ft
  ----------------------------------------------
  L1                 4.1000      0.03      0.00
  P1                 4.1000      0.03      0.00
  P2                 3.9019      0.02      0.00
  P3                 3.4523      0.02      0.00
  P4                 3.0920      0.02      0.00
  P5                 2.6513      0.02      0.00
  P6                 2.0395      0.01      0.00
  P7                 1.4669      0.01      0.00
   
   
  Node Results at 49:00:00 hrs:
  --------------------------------------------------------
                     Demand      Head  Pressure  Chlorine
  Node                  gpm        ft       psi      mg/l
  --------------------------------------------------------
  8                    0.00   1000.00    433.30    0.5253
  i1                   0.33   1000.00    433.30    0.1746
  i2                   0.75   1000.00    433.30    0.4321
  i3                   0.60   1000.00    433.30    0.4318
  i4                   0.74   1000.00    433.30    0.4540
  i5                   1.02   1000.00    433.30    0.4546
  i6                   0.96   1000.00    433.30    0.4381
  10                   2.45   1000.00    433.30    0.3835
  src                 -6.85   1000.00      0.00    0.0000  Reservoir
   
   
  Link Results at 49:00:00 hrs:
  ----------------------------------------------
                       Flow  Velocity  Headloss
  Link                  gpm       fps   /1000ft
  ----------------------------------------------
  L1                 6.8500      0.04      0.00
  P1                 6.8500      0.04      0.00
  P2                 6.5191      0.04      0.00
  P3                 5.7679      0.04      0.00
  P4                 5.1659      0.03      0.00
  P5                 4.4297      0.03      0.00
  P6                 3.4075      0.02      0.00
  P7                 2.4508      0.02      0.00
   
   
  Node Results at 50:00:00 hrs:
  --------------------------------------------------------
                     Demand      Head  Pressure  Chlorine
  Node                  gpm        ft       psi      mg/l
  --------------------------------------------------------
  8                    0.00   1000.00    433.30    0.5839
  i1                   0.25   1000.00    433.30    0.4938
  i2                   0.56   1000.00    433.30    0.0977
  i3                   0.45   1000.00    433.30    0.4181
  i4                   0.55   1000.00    433.30    0.4179
  i5                   0.77   1000.00    433.30    0.4393
  i6                   0.72   1000.00    433.30    0.4400
  10                   1.84   1000.00    433.30    0.4122
  src                 -5.15   1000.00      0.00    0.0000  Reservoir
   
   
  Link Results at 50:00:00 hrs:
  ----------------------------------------------
                       Flow  Velocity  Headloss
  Link                  gpm       fps   /1000ft
  ----------------------------------------------
  L1                 5.1500      0.03      0.00
  P1                 5.1500      0.03      0.00
  P2                 4.9012      0.03      0.00
  P3                 4.3365      0.03      0.00
  P4                 3.8838      0.02      0.00
  P5                 3.3304      0.02      0.00
  P6                 2.5618      0.02      0.00
  P7                 1.8426      0.01      0.00
   
   
  Node Results at 51:00:00 hrs:
  --------------------------------------------------------
                     Demand      Head  Pressure  Chlorine
  Node                  gpm        ft       psi      mg/l
  --------------------------------------------------------
  8                    0.00   1000.00    433.30    0.6195
  i1                   0.20   1000.00    433.30    0.5494
  i2                   0.44   1000.00    433.30    0.3985
  i3                   0.36   1000.00    433.30    0.0948
  i4                   0.44   1000.00    433.30    0.4045
  i5                   0.60   1000.00    433.30    0.4044
  i6                   0.57   1000.00    433.30    0.4256
  10                   1.45   1000.00    433.30    0.4114
  src                 -4.05   1000.00      0.00    0.0000  Reservoir
   
   
  Link Results at 51:00:00 hrs:
  ----------------------------------------------
                       Flow  Velocity  Headloss
  Link                  gpm       fps   /1000ft
  ----------------------------------------------
  L1                 4.0500      0.03      0.00
  P1                 4.0500      0.03      0.00
  P2                 3.8543      0.02      0.00
  P3                 3.4102      0.02      0.00
  P4                 3.0543      0.02      0.00
  P5                 2.6190      0.02      0.00
  P6                 2.0146      0.01      0.00
  P7                 1.4490      0.01      0.00
   
   
  Node Results at 52:00:00 hrs:
  --------------------------------------------------------
                     Demand      Head  Pressure  Chlorine
  Node                  gpm        ft       psi      mg/l
  --------------------------------------------------------
  8                    0.00   1000.00    433.30    0.6014
  i1                   0.21   1000.00    433.30    0.5910
  i2                   0.48   1000.00    433.30    0.4628
  i3                   0.39   1000.00    433.30    0.3855
  i4                   0.47   1000.00    433.30    0.3916
  i5                   0.66   1000.00    433.30    0.3915
  i6                   0.61   1000.00    433.30    0.4123
  10                   1.57   1000.00    433.30    0.3989
  src                 -4.40   1000.00      0.00    0.0000  Reservoir
   
   
  Link Results at 52:00:00 hrs:
  ----------------------------------------------
                       Flow  Velocity  Headloss
  Link                  gpm       fps   /1000ft
  ----------------------------------------------
  L1                 4.4001      0.03      0.00
  P1                 4.4000      0.03      0.00
  P2                 4.1874      0.03      0.00
  P3                 3.7049      0.02      0.00
  P4                 3.3182      0.02      0.00
  P5                 2.8453      0.02      0.00
  P6                 2.1887      0.01      0.00
  P7                 1.5742      0.01      0.00
   
   
  Node Results at 53:00:00 hrs:
  --------------------------------------------------------
                     Demand      Head  Pressure  Chlorine
  Node                  gpm        ft       psi      mg/l
  --------------------------------------------------------
  8                    0.00   1000.00    433.30    0.5799
  i1                   0.20   1000.00    433.30    0.5723
  i2                   0.44   1000.00    433.30    0.5151
  i3                   0.36   1000.00    433.30    0.4477
  i4                   0.44   1000.00    433.30    0.0889
  i5                   0.60   1000.00    433.30    0.3789
  i6                   0.57   1000.00    433.30    0.3994
  10                   1.45   1000.00    433.30    0.4003
  src                 -4.05   1000.00      0.00    0.0000  Reservoir
   
   
  Link Results at 53:00:00 hrs:
  ----------------------------------------------
                       Flow  Velocity  Headloss
  Link                  gpm       fps   /1000ft
  ----------------------------------------------
  L1                 4.0500      0.03      0.00
  P1                 4.0500      0.03      0.00
  P2                 3.8543      0.02      0.00
  P3                 3.4102      0.02      0.00
  P4                 3.0543      0.02      0.00
  P5                 2.6190      0.02      0.00
  P6                 2.0146      0.01      0.00
  P7                 1.4490      0.01      0.00
   
   
  Node Results at 54:00:00 hrs:
  --------------------------------------------------------
                     Demand      Head  Pressure  Chlorine
  Node                  gpm        ft       psi      mg/l
  --------------------------------------------------------
  8                    0.00   1000.00    433.30    0.5371
  i1                   0.20   1000.00    433.30    0.5543
  i2                   0.44   1000.00    433.30    0.5542
  i3                   0.36   1000.00    433.30    0.4985
  i4                   0.44   1000.00    433.30    0.3613
  i5                   0.60   1000.00    433.30    0.0861
  i6                   0.57   1000.00    433.30    0.3673
  10                   1.45   1000.00    433.30    0.3880
  src                 -4.05   1000.00      0.00    0.0000  Reservoir
   
   
  Link Results at 54:00:00 hrs:
  ----------------------------------------------
                       Flow  Velocity  Headloss
  Link                  gpm       fps   /1000ft
  ----------------------------------------------
  L1                 4.0500      0.03      0.00
  P1                 4.0500      0.03      0.00
  P2                 3.8543      0.02      0.00
  P3                 3.4102      0.02      0.00
  P4                 3.0543      0.02      0.00
  P5                 2.6190      0.02      0.00
  P6                 2.0146      0.01      0.00
  P7                 1.4490      0.01      0.00
   
   
  Node Results at 55:00:00 hrs:
  --------------------------------------------------------
                     Demand      Head  Pressure  Chlorine
  Node                  gpm        ft       psi      mg/l
  --------------------------------------------------------
  8                    0.00   1000.00    433.30    0.5179
  i1                   0.30   1000.00    433.30    0.5354
  i2                   0.69   1000.00    433.30    0.5363
  i3                   0.55   1000.00    433.30    0.4823
  i4                   0.68   1000.00    433.30    0.4197
  i5                   0.94   1000.00    433.30    0.0834
  i6                   0.88   1000.00    433.30    0.3558
  10                   2.25   1000.00    433.30    0.3762
  src                 -6.30   1000.00      0.00    0.0000  Reservoir
   
   
  Link Results at 55:00:00 hrs:
  ----------------------------------------------
                       Flow  Velocity  Headloss
  Link                  gpm       fps   /1000ft
  ----------------------------------------------
  L1                 6.3000      0.04      0.00
  P1                 6.3000      0.04      0.00
  P2                 5.9956      0.04      0.00
  P3                 5.3048      0.03      0.00
  P4                 4.7511      0.03      0.00
  P5                 4.0740      0.03      0.00
  P6                 3.1339      0.02      0.00
  P7                 2.2540      0.01      0.00
   
  Analysis ended Mon Jul 22 10:35:52 2019
