  Page 1                                    Wed Aug 07 13:05:05 2019

  ******************************************************************
  *                           E P A N E T                          *
  *                   Hydraulic and Water Quality                  *
  *                   Analysis for Pipe Networks                   *
  *                         Version 2.2                            *
  ******************************************************************
  
  Analysis begun Wed Aug 07 13:05:05 2019

   
  Node Results at 264:00:00 hrs:
  --------------------------------------------------------
                     Demand      Head  Pressure  Chlorine
  Node                  L/s         m         m      mg/L
  --------------------------------------------------------
  J511                 0.76    135.30     30.22    1.8524
  J411                 0.57     74.31     65.36    3.2396
  J414                 0.61     70.48     36.12    3.1151
  J415                 0.00    150.16     85.16    3.0685
  J416                 0.00    142.07     99.47    3.0611
  J417                 0.82     69.24     31.86    3.1064
  J418                 0.00     68.64     31.25    0.0000
  J419                 0.00     68.35     27.85    2.3348
  J310                 0.85    107.57     55.73    1.8510
  J311                 0.74    107.59     51.64    1.9593
  J312                 0.05    106.82     38.34    1.6688
  J313                 0.43    106.82     39.16    1.4763
  J314                 0.92     73.32     58.38    2.6808
  J315                 0.84     73.23     57.20    2.5056
  J316                 0.40     73.43     60.45    1.1061
  J318                 1.01    106.95     53.28    1.7473
  J319                 0.91    106.95     67.66    1.5164
  J210                 0.06     73.75     66.74    0.0040
  J211                 1.01     73.76     62.49    1.5004
  J212                 0.39     73.76     65.89    2.1195
  J214                 0.56     73.83     65.16    2.7168
  J217                 0.81     73.25     62.27    2.1095
  J218                 0.06     73.76     66.08    1.4827
  J219                 0.63    113.81     61.81    1.8905
  J110                 0.50     79.21     63.29    3.6325
  J420                 0.00     68.35     28.36    3.0781
  J421                 0.66     69.05     31.96    3.1051
  J422                 0.00     68.64     29.83    3.1021
  J1153                0.28     72.60     50.46    1.9042
  J1154                0.30     73.03     58.42    2.1255
  J1155                0.88     72.95     57.41    1.9918
  J425                 0.00    141.64     77.22    3.0196
  J426                 0.00    141.33     68.62    2.9804
  J1157                1.05     72.60     50.39    2.3780
  J427                 0.00    142.03     74.38    3.0571
  J1158                0.24     72.89     44.64    2.0828
  J428                 0.74     66.19     49.99    2.6737
  J429                 1.04     66.33     53.77    2.8711
  J320                 0.26    108.09     61.36    2.0661
  J321                 0.56    108.03     63.44    1.9998
  J322                 0.11    108.03     60.01    1.7746
  J324                 1.05    108.02     65.64    1.9686
  J1056                0.72     74.00     66.36    2.9633
  J327                 0.02    108.40     58.72    2.0188
  J1058                0.61     70.22     56.64    1.4810
  J328                 0.10    108.64     62.95    2.0763
  J329                 0.11    114.91     70.86    2.0871
  J220                 0.85    113.75     33.75    1.4849
  J221                 0.30    106.60      9.53    1.4488
  J225                 0.05     73.29     59.96    0.9899
  J226                 0.31     73.00     61.90    0.9062
  J50                  0.40    106.54     34.74    1.4518
  J51                  0.31    106.53     29.11    1.2902
  J53                  1.01    109.54     24.54    1.6511
  J54                  1.04    109.79     29.79    1.6747
  J128                 0.43    133.74     48.48    1.9388
  J55                  0.29    110.01     39.01    1.5187
  J129                 0.17    133.13     70.28    1.5724
  J56                  0.17    110.30     38.30    1.4695
  J57                  0.69    111.26     52.26    1.5241
  J58                  0.43    109.98     33.98    1.3502
  J59                  0.44    111.70     54.70    1.7885
  J1160                0.76     70.88     45.97    2.7315
  J1161                0.35     70.84     45.59    2.2524
  J431                 0.67     71.49     54.59    3.1218
  J432                 0.22     71.28     51.40    2.8338
  J433                 0.20     72.44     45.09    3.1632
  J434                 0.62     73.91     57.43    3.2194
  J435                 0.09     72.61     60.46    3.2386
  J436                 0.49     66.51     48.83    2.9569
  J438                 0.96     74.15     63.72    3.2294
  J1169                0.28    129.22     73.80    1.7635
  J439                 0.83     66.00     48.22    2.3468
  J330                 0.40    107.44     49.19    1.8682
  J331                 0.30    107.40     48.14    1.8489
  J332                 0.84     65.45     21.27    2.1079
  J333                 0.67     69.57     43.87    1.4021
  J334                 0.67     69.53     40.25    1.3132
  J335                 0.45     69.73     44.65    1.4417
  J336                 0.10     70.06     46.25    1.5040
  J337                 0.60     73.79     51.68    1.5400
  J231                 0.73    113.66     41.76    1.7122
  J232                 0.96    113.66     43.85    1.8550
  J233                 0.00    138.39     64.16    2.6718
  J234                 0.02    137.46     73.40    2.4762
  J236                 0.58    113.28     55.28    1.7375
  J237                 0.97    113.28     40.14    1.2848
  J130                 0.47     94.52     40.00    1.8326
  J131                 0.73    133.88     45.83    1.9799
  J132                 0.54    135.72     61.17    2.2757
  J133                 0.56    135.68     66.10    2.1711
  J60                  0.49    113.10     58.10    1.8620
  J134                 0.38    137.01     56.31    2.3744
  J135                 0.44    137.21     67.21    2.4279
  J62                  0.29    111.67     51.67    1.7776
  J64                  0.06    109.45     27.45    1.6215
  J65                  0.26    109.45     27.45    1.5019
  J66                  1.04    112.06     40.06    1.9317
  J67                  0.06    109.98     28.98    1.7745
  J68                  0.41    109.52     36.52    1.5237
  J69                  0.39    109.50     38.50    1.3876
  J1170                0.52    129.22     74.68    1.7478
  J441                 0.00    142.10     73.10    3.0649
  J444                 0.50     73.07     43.61    2.5116
  J341                 0.27     72.37     57.48    2.0888
  J344                 0.67    129.22     74.52    1.7279
  J345                 0.58    129.22     79.25    1.6213
  J347                 0.17    129.22     74.82    1.7311
  J348                 0.98    113.64     51.46    1.5234
  J349                 0.68    113.68     77.27    1.9246
  J241                 0.54    113.91     43.91    1.8602
  J242                 0.41    113.91     48.91    1.8904
  J243                 0.11    113.91     53.91    1.5987
  J244                 0.83    113.59     43.59    1.7130
  J245                 0.49    113.85     42.85    1.9804
  J246                 0.80    113.36     58.36    1.8682
  J247                 0.63    113.58     56.58    1.5004
  J248                 0.88    113.61     59.61    1.9485
  J249                 0.02    114.59     64.59    1.9956
  J142                 0.22     74.85     69.32    1.9365
  J143                 0.08     74.84     68.54    0.8854
  J70                  0.11    109.50     39.50    1.3120
  J144                 0.35     74.80     70.63    0.3193
  J71                  0.14    109.74     32.74    1.6335
  J72                  0.00    109.66     34.66    1.3494
  J73                  0.57    109.76     29.76    1.6536
  J74                  0.70    109.66     34.66    1.1668
  J76                  0.58    109.46     39.46    1.1696
  J77                  0.88    109.67     33.67    1.5696
  J78                  0.09    106.46     45.90    1.2063
  J350                 0.20    129.37     95.55    0.8223
  J351                 0.71    113.68     88.17    1.7760
  J352                 0.48    114.44     66.89    2.0674
  J353                 0.37    114.00     91.36    1.9190
  J354                 0.16    114.00     95.32    1.7709
  J355                 0.74    112.27     83.40    1.7309
  J358                 0.97    110.24     87.94    1.5933
  J359                 0.55    109.94     92.37    1.4981
  J250                 0.09    113.93     46.93    1.9821
  J251                 0.82    138.78     63.59    2.6630
  J252                 0.44    138.78     54.96    2.4189
  J253                 0.50    133.67     58.98    1.8326
  J254                 0.53    133.67     59.08    1.7174
  J257                 0.22    138.67     33.09    2.5469
  J154                 0.35     90.28     46.59    3.9532
  J155                 0.10     90.25     45.84    3.9479
  J82                  0.62    106.54     35.67    1.6973
  J156                 0.18     90.65     34.49    3.9911
  J83                  0.97    107.10     46.03    1.8362
  J84                  0.10    125.20     81.38    2.0981
  J85                  0.47    118.76     73.76    2.0361
  J159                 0.29     88.79     51.38    3.9284
  J86                  0.92    113.91     63.91    1.8930
  J87                  0.80    125.71     83.08    2.1011
  J89                  0.30    133.66     65.37    1.7570
  J360                 0.70    109.71     89.00    1.4597
  J361                 0.27    112.88     86.21    1.7554
  J362                 0.09    115.05     71.39    2.0905
  J363                 0.00    140.20     67.97    2.8834
  J364                 0.00    139.68     74.68    2.8449
  J365                 0.84     72.99     43.16    2.2675
  J366                 0.32     73.16     58.70    2.7854
  J1208                0.25    115.30     72.56    2.0937
  J367                 0.51     73.04     59.44    2.5450
  J369                 0.27     73.04     52.77    2.4775
  J160                 0.36     90.22     46.53    3.9446
  J161                 0.05     80.70     57.89    2.9802
  J162                 0.51     80.69     43.81    2.0154
  J163                 0.22     80.70     64.50    3.4058
  J164                 0.92     80.69     63.35    2.9712
  J91                  0.64    133.65     69.56    1.6604
  J165                 0.80     80.70     64.01    3.2847
  J166                 0.98     80.70     56.75    2.8923
  J167                 0.35     80.70     56.79    2.7482
  J94                  0.58    124.39     93.64    0.7046
  J95                  0.09     79.20     56.64    3.1911
  J96                  0.67     79.19     49.19    2.9301
  J97                  0.43     79.16     44.97    2.7346
  J976                 1.02     74.84     68.54    1.0769
  J571                 0.12    136.84     59.73    2.3386
  J572                 1.00    136.84     60.44    2.3157
  J573                 0.67    133.69     52.07    1.8537
  J574                 0.38    133.64     66.28    1.7457
  J575                 0.16    136.37     61.10    2.3038
  J576                 0.52    136.95     56.15    2.3705
  J370                 0.23     72.97     52.51    2.3038
  J371                 0.00    139.52     70.71    2.8294
  J372                 0.14     73.45     50.25    1.0464
  J373                 0.03     73.45     46.23    1.4845
  J374                 0.37     73.47     59.77    0.9617
  J375                 0.58     73.47     50.75    1.1310
  J376                 0.98     73.26     61.08    0.9457
  J377                 0.57     73.45     60.33    0.8643
  J1219                0.43     79.57     65.09    2.4277
  J379                 0.90     72.89     62.64    0.8499
  J171                 0.88     79.93     71.12    2.5166
  J172                 0.71     80.08     73.83    2.9807
  J173                 0.77     80.66     67.66    3.7431
  J174                 1.06     80.21     74.10    3.0983
  J175                 0.36     80.21     73.37    3.2613
  J177                 0.53     80.49     67.35    3.7715
  J179                 0.44     79.56     64.55    3.6510
  J580                 0.75    135.33     22.25    2.0437
  J486                 0.19    134.84     48.73    1.8446
  J487                 0.46    134.55     55.55    1.6343
  J488                 0.59    135.31     46.15    1.9995
  J489                 0.88    134.84     49.82    2.1138
  J381                 0.57    113.67     77.65    1.8971
  J1223                0.45     73.75     70.27    1.2263
  J382                 0.53    113.68     43.26    1.8641
  J384                 0.00    115.40     72.89    2.0961
  J385                 0.00    138.96     62.36    2.7885
  J180                 0.52     79.93     71.16    3.0526
  J181                 0.72     80.60     69.66    3.6127
  J1024                0.94     74.85     69.02    3.0823
  J183                 0.39     79.91     66.63    2.4901
  J1025                0.32     74.85     66.24    3.2922
  J186                 0.31     79.79     70.41    2.5256
  J187                 0.16     79.91     70.10    3.1037
  J188                 0.56     79.56     71.05    1.7125
  J189                 0.24     79.56     71.98    1.4637
  J490                 0.63    135.32     31.48    2.1003
  J491                 0.39    136.81     59.88    2.3219
  J492                 0.95    134.66     39.99    2.0304
  J493                 0.52    135.27     57.65    2.2301
  J494                 0.21    136.65     23.89    2.1734
  J495                 0.74    136.86     45.71    2.2410
  J496                 0.81    136.73     30.39    2.2128
  J497                 0.66    135.40     22.77    2.1580
  J498                 0.85    136.88     46.76    2.3262
  J500                 0.18    135.11     59.59    1.2716
  J499                 0.87    135.11     62.87    1.5495
  J501                 0.22    135.26     54.29    1.6359
  J502                 1.04    135.09     54.10    1.1950
  J503                 0.07    135.29     35.64    1.7910
  J504                 0.07    135.11     68.40    1.4402
  J394                 0.00    142.10     71.57    0.0000
  J509                 0.41    135.29     35.35    0.5201
  J399                 0.00    142.10     67.10    0.0000
  J401                 0.00    142.10     72.10    0.0000
  J406                 0.00    142.10     70.36    0.0000
  J295                 0.18    106.45     50.03    0.9564
  J407                 0.00    142.10     74.10    0.0000
  J296                 0.75    106.18     75.27    0.7011
  J408                 0.57     74.96     67.03    3.2982
  J297                 0.59    106.54      7.49    1.2085
  J298                 0.23    106.71     29.25    1.5645
  J191                 0.50     79.56     73.80    0.9262
  J303                 0.78    106.94     56.52    1.6975
  J192                 0.80     82.07     69.67    3.8437
  J193                 0.42     82.07     69.08    3.6120
  J305                 0.94    106.92     59.81    1.5987
  J194                 0.79     80.68     67.22    3.7856
  J195                 0.09     79.56     64.17    2.2571
  J196                 0.67     80.70     67.35    3.7864
  J308                 0.76     68.19     34.95    2.0127
  J198                 0.02     73.03     54.49    1.7112
  J200                 0.46     73.03     57.28    1.9752
  J199                 0.43     73.03     56.77    2.6528
  J201                 0.29     65.90     21.04    2.1090
  J202                 1.05     73.69     63.28    2.7089
  J203                 0.85     73.09     62.06    2.1056
  J204                 0.74     70.04     48.53    2.0300
  J205                 0.44     73.08     56.42    2.7019
  J206                 0.78     73.03     58.91    2.4860
  J207                 0.29     73.01     54.15    2.1139
  J208                 0.38     73.78     62.53    1.5187
  J101                 0.46     78.18     49.53    1.8715
  J102                 1.00     79.10     32.14    2.2448
  J109                 0.13     78.17     60.70    3.5293
  J1                   0.69     80.70     63.88    3.3599
  J2                   0.37     79.58     67.61    2.4624
  J3                   0.11     70.85     41.83    2.6424
  J4                   0.20     70.85     49.97    2.4814
  J5                   0.08     71.17     48.42    2.6014
  J6                   0.46     70.23     54.98    1.5645
  J7                   1.02     70.38     45.47    2.0132
  J8                   0.57     70.53     39.36    1.9292
  J9                   0.52     70.74     38.85    2.1296
  J10                  1.03     67.07     52.45    3.1267
  J11                  0.23     73.63     55.20    3.2080
  J12                  0.40     71.94     42.67    3.1512
  J13                  0.42     71.56     39.52    3.1200
  J14                  0.00     68.64     30.73    3.1021
  J15                  0.00    142.10     39.26    0.0000
  J16                  0.00    142.10     53.21    0.0000
  J17                  0.00    142.10     59.35    0.0000
  J18                  0.00    142.10     57.14    0.0000
  J19                  0.00    142.10     51.16    0.0000
  J20                  0.00    142.10     62.10    0.0000
  J21                  0.00    142.10     62.10    0.0000
  J22                  0.00    138.73     55.99    2.7318
  J23                  0.00    139.07     63.11    2.7929
  J25                  0.07    138.40     44.27    1.1905
  J26                  0.82    138.40     62.05    1.8666
  J27                  0.76    138.40     56.32    1.3939
  J28                  0.54     84.96     39.96    1.4290
  J29                  0.17     84.98     35.98    1.8980
  J30                  0.24    138.40     66.39    1.3593
  J31                  0.35    138.40     68.62    1.9461
  J32                  0.85     84.96     39.96    1.8053
  J33                  0.05     84.96     36.96    1.2110
  J34                  0.56     84.97     34.97    1.5385
  J35                  0.82    138.40     70.62    1.9749
  J36                  0.87     84.98     33.90    1.9285
  J37                  0.35    138.53     72.34    2.3237
  J38                  1.05     84.96     37.96    1.3383
  J24                  0.85     73.80     39.27    1.5540
  J39                  0.72     73.85     27.97    1.5877
  J40                  0.96     73.52     60.72    1.1913
  J123                 0.94    124.38     85.97    0.5419
  J140                 0.44    124.38     84.44    0.5607
  J141                 0.13    124.38     82.93    0.5819
  J157                 1.02    124.38     92.89    0.6326
  J158                 0.85    124.38     98.50    0.5297
  J168                 0.74    124.39     84.18    0.7668
  J170                 0.43    124.39     77.52    0.6885
  J176                 0.02    124.40     73.76    1.6408
  J178                 0.18    124.40     65.53    0.6890
  J184                 0.18    124.40     68.31    0.3732
  J185                 0.54    124.42     80.71    1.9269
  J190                 0.43    124.70     66.21    2.3146
  J197                 0.11    125.02     83.16    2.8539
  J213                 0.29    124.70     72.63    1.9733
  J215                 0.69    124.66     48.90    1.8554
  J216                 0.91    125.11     72.05    3.0020
  J227                 0.53    127.52     74.63    3.0318
  J238                 0.20    129.47     85.31    3.0537
  J239                 0.96    129.46     85.97    3.0028
  J255                 0.40    129.44     94.13    2.8146
  J256                 0.00    129.75     89.75    3.0602
  J258                 0.82    127.52     76.28    2.9616
  J260                 0.23    129.37     96.84    1.9577
  J265                 0.48    129.33     78.46    1.8279
  J266                 0.25    129.36     89.53    1.9244
  J267                 0.92    114.00     91.69    1.8991
  J61                  0.65    109.51     37.51    1.4994
  J92                  0.40    109.46     37.46    1.2325
  J268                 0.41    106.45     36.77    0.8604
  J278                 0.93    133.82     29.53    1.7497
  J281                 0.63    133.73     50.01    1.3705
  J283                 1.01    133.74     39.68    1.5571
  J284                 0.56    133.72     56.34    1.2254
  J136                 0.36    133.68     51.88    1.8253
  J137                 0.92     79.93     70.82    3.2414
  J145                 0.28    124.38     76.92    0.5433
  J118                 0.28    109.99     34.99    1.4386
  J52                  0.19    113.64     58.94    1.4296
  J81                  0.38     84.93     34.93    1.2531
  J88                  0.00     85.00     40.00    1.9749
  J90                  0.80    138.78     54.78    2.5033
  J93                  2.73    138.52     73.52    2.3025
  J147                 0.30    136.84     68.84    0.9107
  J148                 0.76     94.47     44.47    1.3792
  J149                 0.44     94.48     54.48    1.6647
  J150                 0.88     94.45     34.45    1.5205
  J151                 0.80    133.31     73.31    1.4478
  J152                 0.47     80.80     48.80    0.9409
  J153                 0.08    133.31     73.31    1.3190
  J169                 0.44     82.00     40.00    1.5724
  J182                 0.37     81.99     41.99    1.2286
  J222                 0.77     80.83     48.83    1.3699
  J224                 0.34     80.82     43.82    1.2660
  J230                 0.84    106.87     76.87    1.3776
  J235                 0.16    106.92     53.92    1.6095
  J240                 0.64    135.29     48.29    0.4226
  J269                 0.00     90.66     34.66    3.9931
  J273                 0.00     90.66     34.66    3.9931
  J274                 0.00     90.66     34.66    0.0000
  J276                 0.00     58.98      2.98    0.0000
  J280                 0.00     58.98      2.98    3.9975
  J285                 0.00     58.97      2.97    3.9931
  J287                 0.00     67.85     27.85    3.0731
  J288                 0.00     67.79     27.79    3.0675
  J289                 0.00     67.81     27.81    3.0714
  J290                 0.00     67.77     27.77    3.0701
  J291                 0.00    150.17     85.17    3.0701
  J292                 0.00    129.76     89.76    3.0625
  J299                 0.00     67.73     27.73    3.0625
  J300                 0.00     67.75     27.75    3.0648
  J301                 0.00     64.93     20.93    2.1063
  J302                 0.00     64.87     20.87    2.1048
  J304                 0.00    127.23     83.23    2.1063
  J306                 0.00    127.01     83.01    2.1053
  J307                 0.00     64.76     20.76    2.1025
  J309                 0.00     64.76     20.76    0.0000
  J317                 0.00    115.53     71.53    2.1025
  J323                 0.00    115.53     71.53    0.0000
  R1                -193.74     59.00     -0.00    4.0000  Reservoir
  T3                  20.00    117.18      4.28    1.8536  Tank
  T1                 -25.06     73.94      2.44    1.6777  Tank
  T7                   4.46    106.48      4.48    1.1873  Tank
  T6                   0.00    107.00      5.50    0.5518  Tank
  T5                  13.43    109.34      3.54    1.3648  Tank
  T2                   0.44     68.35      3.35    2.5430  Tank
  T4                   6.47    135.27      2.77    0.6480  Tank
   
   
  Link Results at 264:00:00 hrs:
  ----------------------------------------------
                       Flow  Velocity  Headloss
  Link                  L/s       m/s    /1000m
  ----------------------------------------------
  P1                 1.0574      0.03      0.03
  P10               -1.7905      0.39      4.23
  P100            -192.7511      1.49     13.24
  P1000             40.4066      1.25     21.24
  P101               0.5118      0.01      0.00
  P1016             37.0961      0.51      2.06
  P102             172.0250      0.85      2.51
  P1022             -0.1682      0.02      0.01
  P1023              1.1772      0.14      0.58
  P1024              3.1358      0.38      4.02
  P1025              3.4066      0.75     16.72
  P1026              2.3060      0.51      9.77
  P1027             -0.6278      0.31      5.70
  P1028              0.0242      0.01      0.00
  P1029              0.8817      0.19      1.53
  P103               7.6399      0.15      0.31
  P1030              1.7883      0.39      4.47
  P1031             11.4571      0.63      7.09
  P1032             10.6093      0.58      4.62
  P1033             10.5422      0.58      6.02
  P1034             -0.5331      0.02      0.00
  P1035             -3.5782      0.20      0.62
  P1036              9.8079      0.30      1.64
  P1039             -5.7950      0.18      0.42
  P104               0.3511      0.01      0.00
  P1040             -2.9257      0.16      0.45
  P1041              2.5679      0.31      1.80
  P1042             -2.1976      0.12      0.40
  P1044            -13.4274      0.41      1.69
  P1045            -13.7448      0.42      1.29
  P106               2.0319      0.25      3.40
  P107              -5.1340      0.16      0.43
  P108               1.5721      0.05      0.05
  P109               5.8473      0.18      0.59
  P11                0.9946      0.12      0.42
  P110            -169.9255      0.84      2.18
  P111               0.4303      0.02      0.02
  P112               1.4491      0.02      0.01
  P113              -6.0553      0.33      2.13
  P115               8.2710      1.01     23.46
  P116              -3.3446      0.18      0.60
  P117               4.0575      0.50     10.82
  P118               1.9393      0.24      1.84
  P119               0.2368      0.00      0.00
  P12              -18.1806      0.14      0.12
  P120               3.2317      0.40      4.36
  P121               0.4232      0.02      0.01
  P122             -14.8085      0.20      0.43
  P123               2.1296      0.12      0.57
  P124              -0.7325      0.09      0.35
  P125              -4.5165      0.02      0.00
  P126              -0.7809      0.17      1.28
  P127              -1.1772      0.14      0.94
  P128               0.7665      0.09      0.29
  P129               0.5710      0.07      0.22
  P13              -23.4908      0.18      0.23
  P130               1.2125      0.27      4.50
  P131               0.2940      0.06      0.29
  P132               0.8988      0.20      1.70
  P134              -1.3641      0.30      4.61
  P136              -1.4465      0.18      1.31
  P138             -41.5309      0.82      8.38
  P139              17.8023      0.14      0.20
  P14              -24.3439      0.19      0.32
  P140               0.8466      0.10      0.25
  P141               1.0569      0.13      0.40
  P142               2.7322      0.15      0.48
  P144               0.0000      0.00      0.00
  P147               0.7267      0.02      0.01
  P148              37.0961      0.51      1.64
  P15              -25.0598      0.19      0.22
  P150               1.0809      0.06      0.06
  P154              18.1992      1.00     10.44
  P155              -6.5777      0.81     11.91
  P156               0.1704      0.02      0.01
  P157              -1.7754      0.22      1.09
  P158              -0.8204      0.18      1.05
  P159              -2.8206      0.09      0.14
  P16                3.8814      0.47      5.13
  P160               1.6191      0.36      3.72
  P161               2.9687      0.65     15.11
  P162             -24.6120      1.36     21.86
  P163               1.2392      0.04      0.02
  P165             -37.0766      0.51      1.76
  P166               2.8854      0.36      3.24
  P17              163.1886      0.81      3.21
  P174              -1.0692      0.13      0.55
  P177              -0.9450      0.12      0.35
  P18              160.2549      0.79      1.91
  P184               6.6266      0.82     14.46
  P19               67.7537      0.33      0.41
  P195              -1.1674      0.26      3.29
  P2                -7.2652      0.22      1.32
  P20               53.5058      0.26      0.31
  P201              -0.9194      0.20      1.51
  P21               31.7895      0.25      0.37
  P211               0.7480      0.16      1.34
  P215               0.4376      0.01      0.00
  P218              -0.8523      0.10      0.43
  P219               0.4332      0.05      0.11
  P22              192.4616      1.49     11.85
  P220               0.8385      0.18      1.35
  P223               0.9119      0.03      0.01
  P225               0.1113      0.01      0.01
  P228              -1.8771      0.41      5.39
  P23              191.2404      0.94      4.31
  P230              -1.8607      0.41      8.42
  P231              -1.4642      0.32      3.46
  P233               0.6658      0.15      0.82
  P234               1.3360      0.29      3.65
  P235              -4.7150      1.04     40.18
  P237              49.9995      0.68    670.87
  P238              49.9994      0.69      2.46
  P24             -170.4508      0.84      2.70
  P241               0.5787      0.07      0.11
  P242               2.0315      0.11      0.21
  P243              -4.4684      0.14      0.31
  P245              34.1063      1.87     27.37
  P246              21.6772      1.19     11.61
  P248              20.4616      1.12     12.54
  P249               0.7049      0.35      8.12
  P25              186.0507      0.92      4.39
  P251             -18.9099      1.04     12.25
  P252              49.9994      0.68      3.83
  P255               0.1820      0.09      0.92
  P256             -49.9994      0.68      2.94
  P258               0.0306      0.00      0.00
  P259              -0.1708      0.02      0.02
  P26                4.2980      0.02      0.00
  P264               0.5363      0.07      0.10
  P266               1.1205      0.14      0.44
  P267               0.3017      0.02      0.01
  P268               2.0789      0.11      0.28
  P27                1.8949      0.04      0.03
  P270               0.8790      0.11      0.36
  P272              -1.4944      0.18      1.46
  P275               0.7614      0.04      0.03
  P28                0.9171      0.05      0.06
  P280               0.0000      0.00      0.00
  P282              -3.0957      0.38      4.17
  P284               0.8879      0.19      1.63
  P285               0.0845      0.02      0.02
  P286               0.3676      0.05      0.08
  P287              -0.4376      0.01      0.00
  P288               1.5818      0.35      5.17
  P29                0.8008      0.04      0.05
  P290               0.3382      0.07      0.27
  P291              49.9994      0.68      2.35
  P292              49.9994      0.68      2.81
  P293              49.9994      0.68      3.11
  P294              -1.5703      0.19      1.38
  P295              -4.1279      0.91     41.65
  P296              -1.5125      0.33      5.04
  P297              91.9353      0.71      3.67
  P298              66.6822      0.91      6.21
  P299               2.6099      0.32      2.98
  P3               -14.0427      0.20      0.49
  P30                1.8472      0.04      0.02
  P301              66.0634      0.90      6.02
  P302              65.8323      0.90      6.67
  P303               0.8330      0.18      1.49
  P304               0.4740      0.06      0.12
  P305              -0.0000      0.00      0.00
  P307              64.1225      0.88     10.73
  P308              49.9994      0.68      3.38
  P309               0.8358      0.10      0.32
  P31                4.9750      0.27      0.95
  P310             193.7437      0.66      1.44
  P316             193.7437      0.66      2.14
  P319              -0.0000      0.00      0.00
  P32                8.0089      0.44      2.50
  P320              96.8623      0.33      0.51
  P322              96.8623      0.33      0.38
  P323              -0.0000      0.00      0.00
  P329               2.3724      0.13      0.28
  P33                5.8195      0.11      0.22
  P330               1.1167      0.25      2.18
  P331               0.4581      0.22      3.11
  P336               3.5306      0.19      0.68
  P337             -15.2850      0.21     61.14
  P338               0.1752      0.04      0.07
  P339               1.0362      0.13      0.53
  P34              175.3069      0.86      3.56
  P340             -26.9486      0.37      0.83
  P341             -24.2275      0.33      0.77
  P343              -4.2715      0.24      0.83
  P344               6.3893      0.35      2.33
  P346               0.0666      0.03      0.09
  P347               6.4700      0.09      0.06
  P348               7.5234      0.10      0.10
  P349              -9.9671      0.14      0.14
  P35                0.6811      0.04      0.04
  P350               0.6423      0.02      0.01
  P37                0.1870      0.01      0.00
  P372              -8.0522      0.99     15.28
  P374              35.0586      0.69      3.94
  P375              35.0586      0.69      5.68
  P376              35.0587      0.69      3.21
  P378              35.0587      0.69      2.71
  P379              49.9995      0.99      6.30
  P38               -1.0909      0.24      1.73
  P380              49.9995      0.99      8.28
  P381              49.9995      0.69      1.93
  P383               4.9632      0.27      1.66
  P384               3.5683      0.79     16.88
  P385             -25.0746      0.34      1.23
  P386              11.1807      0.62      7.51
  P39                0.2148      0.03      0.02
  P397              64.6600      1.99     39.86
  P398              29.7581      0.92      8.78
  P399              29.7582      0.92     10.81
  P40               -6.0871      0.74      9.74
  P402              -0.0000      0.00      0.00
  P403              34.9018      1.91     32.94
  P409              34.9018      1.91     49.06
  P410              -0.0000      0.00      0.00
  P42                4.8104      0.27      0.80
  P424              29.7582      0.92      4.89
  P43                0.2584      0.01      0.00
  P44               17.1617      0.95      8.44
  P443             -63.7204      0.87      5.58
  P445              86.1562      1.70     23.47
  P446               0.0000      0.00      0.00
  P450               0.0000      0.00      0.00
  P46                0.1117      0.01      0.01
  P465              85.4957      1.69     22.97
  P467              85.4957      1.69     18.91
  P468              85.0581      1.68     15.83
  P48                4.2416      0.23      0.65
  P482              -2.0188      0.11      0.32
  P484              24.2923      0.75      7.71
  P49                0.6963      0.04      0.02
  P492              -0.0567      0.01      0.00
  P5                -5.7969      0.04      0.02
  P500               0.4352      0.01      0.00
  P501               1.3019      0.07      0.07
  P502               1.2645      0.28      2.55
  P51               -2.5323      0.31      2.57
  P510               0.0000      0.00      0.00
  P52               -1.4231      0.17      0.93
  P524             -10.7312      0.15      0.16
  P527             -14.6201      0.20      0.49
  P529               1.0266      0.13      0.39
  P53               29.7582      0.92      9.49
  P54               -1.0013      0.49     13.42
  P55               -1.6980      0.37      5.62
  P57               25.0824      1.38     22.29
  P58               -8.9201      1.09     22.41
  P596               1.8642      0.41      4.20
  P597               0.5602      0.07      0.13
  P6                 0.7174      0.04      0.03
  P609               3.1276      0.69     11.17
  P610               0.0000      0.00      0.00
  P63               -4.1422      0.08      0.08
  P633              -5.8487      0.32      1.08
  P64                3.4693      0.11      0.21
  P65                2.4317      0.30      1.98
  P67                3.0343      0.09      0.19
  P670               0.0000      0.00      0.00
  P671               0.0000      0.00      0.00
  P68                1.2953      0.02      0.00
  P69                5.2837      0.29      2.25
  P697               0.0000      0.00      0.00
  P7               -16.7950      0.08      0.05
  P70                2.3799      0.13      0.51
  P71                0.4965      0.01      0.00
  P72               -4.2278      0.06      0.04
  P724               0.4076      0.02      0.01
  P725               0.9298      0.05      0.05
  P752               4.4594      0.25      0.81
  P753              -3.8853      0.21      0.86
  P754               0.0000      0.00      0.00
  P755              -0.7801      0.01      0.00
  P756              -0.8763      0.01      0.00
  P757               1.6723      0.02      0.00
  P758               2.6128      0.04      0.01
  P759              -5.2399      0.29      1.12
  P760              -5.4667      0.30      1.27
  P761              -5.9474      0.33      1.63
  P763              -1.7878      0.02      0.00
  P766               1.7260      0.10      0.17
  P767              -3.6577      0.05      0.02
  P768               0.8512      0.02      0.00
  P769              -4.2374      0.06      0.02
  P771               0.4288      0.01      0.00
  P772              -5.4095      0.07      0.06
  P775               0.3544      0.01      0.00
  P776               0.1753      0.02      0.01
  P777              -5.7813      0.08      0.04
  P779              -6.3255      0.20      0.54
  P780              -0.0000      0.00      0.00
  P781               4.6391      0.26      1.16
  P783              -7.7404      0.24      0.47
  P784              -0.2948      0.04      0.04
  P785               0.6865      0.08      0.24
  P786              -7.8537      0.24      0.53
  P787              20.0023      2.45     62.37
  P788             -28.7625      1.59     22.40
  P789              13.5306      0.42      2.94
  P791             -30.1171      1.66     23.61
  P794               4.7411      0.15      0.17
  P795               3.7838      0.12      0.17
  P796              35.0586      1.08     12.25
  P797               0.8230      0.10      0.21
  P798               3.3858      0.10      0.10
  P8                10.9414      0.08      0.07
  P800              -1.2500      0.04      0.02
  P801               0.1669      0.01      0.00
  P804              -2.2189      0.27      1.64
  P805              -2.6962      0.15      0.28
  P806              -2.9481      0.16      0.39
  P807               0.2049      0.01      0.00
  P808             -13.2551      0.41      1.93
  P809               1.0458      0.13      0.36
  P810               0.0000      0.00      0.00
  P811               1.7157      0.21      1.32
  P813              16.8203      0.93     17.53
  P815              18.8021      2.30    124.15
  P817               7.8375      0.24      1.13
  P819               8.0121      0.25      0.60
  P821              -0.1569      0.02      0.02
  P822              -1.0761      0.13      0.46
  P823               0.2446      0.05      0.10
  P826              -0.7263      0.16      0.93
  P827               0.2183      0.05      0.09
  P83              193.1125      0.66      1.87
  P830              -0.4134      0.09      0.33
  P831              -2.9150      0.64     15.80
  P84               -0.3930      0.01      0.00
  P840             -14.8493      0.46      2.13
  P841              -1.1611      0.26      2.47
  P842               1.5510      0.73     25.84
  P844               3.1060      0.38      2.54
  P846              -2.0720      0.06      0.05
  P847               2.3470      0.13      0.33
  P85                0.5564      0.12      1.09
  P850               2.5437      0.31      1.83
  P851               1.2691      0.28      1.79
  P852               3.5016      0.11      0.13
  P853              14.7500      0.46      1.47
  P855               0.5765      0.07      0.11
  P858              -0.9733      0.12      0.30
  P859               4.1057      0.23      0.85
  P86              -36.6382      0.50      1.25
  P861               0.6965      0.04      0.04
  P866               1.1454      0.14      0.59
  P87               -3.8971      0.12      0.28
  P871               0.4985      0.06      0.13
  P880               0.3460      0.08      0.31
  P889               1.9399      0.06      0.06
  P89                1.6281      0.09      0.22
  P892             -87.5928      1.73     35.74
  P9                42.3447      0.84     10.12
  P90                1.4591      0.18      1.91
  P91                0.3519      0.04      0.06
  P914               0.0000      0.00      0.00
  P915              19.0040      1.05     23.84
  P92                1.2370      0.04      0.03
  P924              -1.3893      0.03      0.01
  P927              -0.0597      0.00      0.00
  P929               0.0000      0.00      0.00
  P930              -0.0000      0.00      0.00
  P931               0.0000      0.00      0.00
  P932              -0.0000      0.00      0.00
  P933              49.9994      0.68      3.39
  P934              49.9994      0.99      6.16
  P935              37.0961      0.51      1.53
  P937              12.9033      0.25      0.92
  P938              10.8434      0.21      0.66
  P939               0.2968      0.02      0.01
  P94               -0.0587      0.00      0.00
  P940               0.2270      0.01      0.00
  P941               0.0291      0.00      0.00
  P942               0.5609      0.03      0.03
  P943              -0.3758      0.08      0.35
  P944              -1.6766      0.03      0.02
  P946              -0.2132      0.03      0.02
  P947              -0.7320      0.04      0.05
  P948              -1.8632      0.10      0.16
  P949              -2.2430      0.04      0.02
  P95                0.3352      0.00      0.00
  P951              10.6185      0.21      0.41
  P953               7.5341      0.15      0.26
  P954               1.5697      0.05      0.05
  P955               0.2913      0.04      0.05
  P956               0.7174      0.04      0.06
  P957              -0.0547      0.00      0.00
  P958              -0.2815      0.03      0.03
  P959               0.1822      0.02      0.02
  P96               86.9781      1.72     23.05
  P961              -5.1673      0.16      0.39
  P962               0.6102      0.03      0.03
  P963               8.0479      0.25      0.88
  P964               2.3459      0.13      0.29
  P965               5.2591      0.16      0.34
  P966               2.3401      0.07      0.10
  P967               1.2669      0.04      0.03
  P968               0.0166      0.00      0.00
  P969               0.7929      0.02      0.01
  P97              193.2137      0.66      1.39
  P970              -0.8380      0.03      0.01
  P971               2.4093      0.13      0.46
  P972               2.3586      0.13      0.39
  P973              -5.7196      0.18      0.64
  P974              -4.6640      0.14      0.43
  P975               1.8938      0.10      0.32
  P976              -1.2597      0.28      3.57
  P977               0.6375      0.08      0.16
  P978              -2.2316      0.49     11.38
  P98              193.5635      0.66      2.07
  P981              -3.2372      0.71     21.96
  P982              -1.5159      0.05      0.03
  P983              -3.2660      0.40      4.22
  P984               1.0652      0.13      0.39
  P986               0.4992      0.06      0.14
  P987              -0.6699      0.08      0.21
  P988              -2.3527      0.29      1.88
  P989              -0.4544      0.22      3.87
  P99              170.5819      0.84      2.30
  P990              -1.3346      0.16      0.90
  P991              21.1596      0.65      6.84
  P992              20.1143      0.62      5.35
  P993              18.3607      0.57      4.56
  P994              17.0962      0.53      3.75
  P995              24.0622      1.33     29.26
  P996             -65.5027      2.02     43.62
  P997             -41.7325      1.29     14.79
  P998             -42.4888      1.31     17.21
  P999              40.6795      0.80      8.90
  PU1               96.8623      0.00    -31.69  Pump
  PU2               96.8814      0.00    -31.68  Pump
  PU3                0.0000      0.00      0.00  Pump
  PU4               35.0587      0.00    -62.04  Pump
  PU5                0.0000      0.00      0.00  Pump
  PU6                0.0000      0.00      0.00  Pump
  PU7               49.9995      0.00    -82.39  Pump
  PU8               34.9018      0.00    -62.31  Pump
  PU9                0.0000      0.00      0.00  Pump
  PU10              29.7582      0.00    -50.77  Pump
  PU11               0.0000      0.00      0.00  Pump
  v1                 4.4711      0.14     53.40  PRV
  V45                2.5449      0.14     39.15  PRV
  V47                2.3942      0.30     51.13  PRV
  V2                85.4957      1.69      0.00  FCV
   
   
  Node Results at 265:00:00 hrs:
  --------------------------------------------------------
                     Demand      Head  Pressure  Chlorine
  Node                  L/s         m         m      mg/L
  --------------------------------------------------------
  J511                 0.62    135.61     30.53    1.9900
  J411                 0.45     74.64     65.69    3.2539
  J414                 0.49     70.64     36.28    3.1221
  J415                 0.00    151.55     86.55    3.0958
  J416                 0.00    143.66    101.06    3.0880
  J417                 0.65     69.33     31.95    3.1130
  J418                 0.00     68.69     31.30    0.0000
  J419                 0.00     68.38     27.88    2.8177
  J310                 0.72    103.58     51.74    1.9310
  J311                 0.62    103.60     47.65    1.9324
  J312                 0.04    104.39     35.91    1.1946
  J313                 0.36    104.39     36.73    1.6183
  J314                 0.73     73.87     58.93    2.6998
  J315                 0.67     73.81     57.78    2.5450
  J316                 0.32     73.71     60.73    1.0859
  J318                 0.85    103.62     49.95    1.7425
  J319                 0.77    103.62     64.33    1.5533
  J210                 0.05     73.91     66.90    0.0039
  J211                 0.80     73.92     62.65    1.4288
  J212                 0.31     73.92     66.05    2.6922
  J214                 0.44     74.07     65.40    2.7581
  J217                 0.65     73.74     62.76    2.6581
  J218                 0.05     73.92     66.24    2.6674
  J219                 0.52    115.87     63.87    2.0091
  J110                 0.40     79.71     63.79    3.6300
  J420                 0.00     68.38     28.39    3.1061
  J421                 0.53     69.13     32.04    3.1117
  J422                 0.00     68.69     29.88    3.1086
  J1153                0.22     73.61     51.47    1.8821
  J1154                0.24     73.77     59.16    2.0532
  J1155                0.70     73.73     58.19    1.9355
  J425                 0.00    143.25     78.83    3.0509
  J426                 0.00    142.94     70.23    3.0131
  J1157                0.83     73.61     51.40    2.3695
  J427                 0.00    143.63     75.98    3.0837
  J1158                0.19     73.72     45.47    2.0630
  J428                 0.59     69.37     53.17    2.6371
  J429                 0.83     69.47     56.91    2.8410
  J320                 0.21    103.53     56.80    2.0379
  J321                 0.47    103.48     58.89    2.0195
  J322                 0.09    103.48     55.46    1.7630
  J324                 0.88    103.48     61.10    2.0080
  J1056                0.57     74.30     66.66    2.9945
  J327                 0.01    103.59     53.91    1.5474
  J1058                0.49     71.75     58.17    1.4260
  J328                 0.09    103.50     57.81    1.9417
  J329                 0.09    103.07     59.02    1.9401
  J220                 0.71    115.83     35.83    1.5408
  J221                 0.25    105.10      8.03    1.1534
  J225                 0.04     73.62     60.29    0.9711
  J226                 0.25     73.43     62.33    0.8721
  J50                  0.34    104.27     32.47    1.3264
  J51                  0.26    104.30     26.88    1.1386
  J53                  0.84    110.15     25.15    1.7826
  J54                  0.87    110.75     30.75    1.7665
  J128                 0.35    136.13     50.87    1.9504
  J55                  0.25    110.93     39.93    1.6585
  J129                 0.14    135.71     72.86    1.5277
  J56                  0.14    111.37     39.37    1.5917
  J57                  0.57    112.74     53.74    1.6595
  J58                  0.36    110.89     34.89    1.4630
  J59                  0.36    113.30     56.30    1.9208
  J1160                0.60     72.16     47.25    2.7079
  J1161                0.28     72.13     46.88    2.1743
  J431                 0.53     72.63     55.73    3.1381
  J432                 0.18     72.41     52.53    2.8063
  J433                 0.16     72.72     45.37    3.1771
  J434                 0.49     74.22     57.74    3.2285
  J435                 0.07     73.58     61.43    3.2307
  J436                 0.39     69.59     51.91    2.9711
  J438                 0.76     74.48     64.05    3.2404
  J1169                0.24    130.86     75.44    1.7342
  J439                 0.66     69.25     51.47    2.2886
  J330                 0.33    103.97     45.72    1.3156
  J331                 0.25    104.02     44.76    1.2873
  J332                 0.67     71.00     26.82    2.2755
  J333                 0.53     72.26     46.56    1.3149
  J334                 0.53     72.23     42.95    1.2518
  J335                 0.36     72.36     47.28    1.3665
  J336                 0.08     72.58     48.77    1.4136
  J337                 0.47     73.89     51.78    1.4650
  J231                 0.61    102.96     31.06    1.7029
  J232                 0.80    102.96     33.15    0.5233
  J233                 0.00    140.01     65.78    2.7148
  J234                 0.02    139.01     74.95    2.5169
  J236                 0.48    115.58     57.58    1.8419
  J237                 0.81    115.58     42.44    1.2904
  J130                 0.38     94.52     40.00    1.8328
  J131                 0.60    136.22     48.17    1.9846
  J132                 0.44    137.57     63.02    2.2821
  J133                 0.45    137.54     67.96    2.2241
  J60                  0.41    115.03     60.03    1.9814
  J134                 0.31    138.52     57.82    2.4164
  J135                 0.36    138.74     68.74    2.4741
  J62                  0.24    113.26     53.26    1.9081
  J64                  0.05    109.99     27.99    1.7424
  J65                  0.22    109.99     27.99    1.5492
  J66                  0.87    113.62     41.62    2.0435
  J67                  0.05    110.88     29.88    1.9023
  J68                  0.34    110.56     37.56    1.5887
  J69                  0.32    110.54     39.54    1.4005
  J1170                0.44    130.86     76.32    1.6983
  J441                 0.00    143.69     74.69    3.0920
  J444                 0.40     73.81     44.35    2.5212
  J341                 0.22     73.41     58.52    2.5967
  J344                 0.57    130.86     76.16    1.6762
  J345                 0.49    130.86     80.89    1.5724
  J347                 0.14    130.86     76.46    1.6772
  J348                 0.83    102.78     40.60    0.5267
  J349                 0.58    102.58     66.17    1.7541
  J241                 0.45    115.97     45.97    1.9556
  J242                 0.35    115.98     50.98    1.9939
  J243                 0.09    115.98     55.98    1.7734
  J244                 0.69    115.77     45.77    1.7897
  J245                 0.41    115.88     44.88    2.0879
  J246                 0.67    115.64     60.64    1.9795
  J247                 0.53    115.78     58.78    1.6611
  J248                 0.74    115.84     61.84    2.0505
  J249                 0.02    116.73     66.73    2.1039
  J142                 0.18     75.21     69.68    1.9436
  J143                 0.06     75.20     68.90    0.8868
  J70                  0.09    110.54     40.54    1.2719
  J144                 0.28     75.18     71.01    0.3185
  J71                  0.11    110.72     33.72    1.7083
  J72                  0.00    110.66     35.66    1.3623
  J73                  0.47    110.73     30.73    1.7342
  J74                  0.58    110.66     35.66    1.1390
  J76                  0.48    110.51     40.51    1.1670
  J77                  0.73    110.66     34.66    1.6451
  J78                  0.07    104.24     43.68    1.3485
  J350                 0.17    130.97     97.15    0.7997
  J351                 0.60    102.58     77.07    1.8664
  J352                 0.40    102.95     55.40    1.9638
  J353                 0.31    102.63     79.99    1.9399
  J354                 0.13    102.62     83.94    1.7904
  J355                 0.62    101.56     72.69    1.8038
  J358                 0.82    100.08     77.78    1.6603
  J359                 0.47     99.86     82.29    1.5538
  J250                 0.08    115.99     48.99    2.0896
  J251                 0.67    140.51     65.32    2.6701
  J252                 0.35    140.51     56.69    2.4024
  J253                 0.41    136.08     61.39    1.8328
  J254                 0.43    136.08     61.49    1.6988
  J257                 0.18    140.44     34.86    2.5352
  J154                 0.28     90.69     47.00    3.9690
  J155                 0.08     90.66     46.25    3.9598
  J82                  0.52    104.25     33.38    1.4550
  J156                 0.14     91.05     34.89    3.9911
  J83                  0.82    103.73     42.66    1.3300
  J84                  0.09    128.32     84.50    2.2526
  J85                  0.39    121.31     76.31    2.1627
  J159                 0.23     89.22     51.81    3.9328
  J86                  0.77    115.98     65.98    2.0116
  J87                  0.66    128.88     86.25    2.2583
  J89                  0.24    136.07     67.78    1.7305
  J360                 0.59     99.70     78.99    1.4671
  J361                 0.23    102.00     75.33    1.8382
  J362                 0.08    103.06     59.40    1.9451
  J363                 0.00    141.84     69.61    2.9099
  J364                 0.00    141.34     76.34    2.8742
  J365                 0.67     73.77     43.94    2.2455
  J366                 0.25     73.85     59.39    2.7596
  J1208                0.21    103.04     60.30    1.9498
  J367                 0.41     73.78     60.18    2.5489
  J369                 0.21     73.79     53.52    2.4568
  J160                 0.29     90.63     46.94    3.9545
  J161                 0.04     81.22     58.41    2.9585
  J162                 0.41     81.21     44.33    2.0184
  J163                 0.17     81.22     65.02    3.3884
  J164                 0.73     81.21     63.87    2.9513
  J91                  0.52    136.07     71.98    1.6313
  J165                 0.64     81.22     64.53    3.2660
  J166                 0.78     81.22     57.27    2.8708
  J167                 0.28     81.22     57.31    2.8078
  J94                  0.49    126.16     95.41    0.6963
  J95                  0.07     79.70     57.14    3.1770
  J96                  0.54     79.69     49.69    2.9190
  J97                  0.35     79.67     45.48    2.7165
  J976                 0.81     75.20     68.90    1.0716
  J571                 0.10    138.39     61.28    2.3541
  J572                 0.82    138.39     61.99    2.3275
  J573                 0.55    136.10     54.48    1.8501
  J574                 0.31    136.06     68.70    1.7139
  J575                 0.13    138.04     62.77    2.3138
  J576                 0.42    138.46     57.66    2.4100
  J370                 0.19     73.75     53.29    2.2948
  J371                 0.00    141.18     72.37    2.8538
  J372                 0.11     73.72     50.52    1.0111
  J373                 0.02     73.72     46.50    1.4346
  J374                 0.29     73.73     60.03    0.9540
  J375                 0.46     73.73     51.01    1.1052
  J376                 0.78     73.59     61.41    0.9153
  J377                 0.45     73.72     60.60    0.8521
  J1219                0.34     80.07     65.59    2.4523
  J379                 0.71     73.35     63.10    0.8231
  J171                 0.70     80.48     71.67    2.5414
  J172                 0.57     80.64     74.39    2.9717
  J173                 0.61     81.18     68.18    3.7513
  J174                 0.84     80.76     74.65    3.0885
  J175                 0.29     80.77     73.93    3.2790
  J177                 0.42     81.01     67.87    3.7769
  J179                 0.35     80.06     65.05    3.6569
  J580                 0.61    135.68     22.60    2.1132
  J486                 0.16    136.90     50.79    1.9174
  J487                 0.37    136.71     57.71    1.6110
  J488                 0.48    137.20     48.04    2.0667
  J489                 0.72    136.91     51.89    2.1513
  J381                 0.48    102.59     66.57    1.3248
  J1223                0.36     73.91     70.43    1.2031
  J382                 0.45    103.00     32.58    0.5249
  J384                 0.00    103.04     60.53    2.2166
  J385                 0.00    140.64     64.04    2.8145
  J180                 0.41     80.49     71.72    3.0569
  J181                 0.57     81.12     70.18    3.6285
  J1024                0.75     75.21     69.38    3.0767
  J183                 0.31     80.46     67.18    2.4836
  J1025                0.26     75.21     66.60    3.2922
  J186                 0.25     80.33     70.95    2.5562
  J187                 0.13     80.46     70.65    3.1339
  J188                 0.45     80.07     71.56    1.7027
  J189                 0.19     80.07     72.49    1.4718
  J490                 0.52    137.20     33.36    2.1621
  J491                 0.32    138.36     61.43    2.3343
  J492                 0.77    136.75     42.08    2.0628
  J493                 0.42    137.23     59.61    2.2316
  J494                 0.17    138.08     25.32    2.2230
  J495                 0.60    138.35     47.20    2.2759
  J496                 0.66    138.18     31.84    2.2583
  J497                 0.54    135.82     23.19    2.2008
  J498                 0.69    138.36     48.24    2.3655
  J500                 0.14    135.47     59.95    1.3185
  J499                 0.71    135.47     63.23    1.7170
  J501                 0.18    135.57     54.60    1.7985
  J502                 0.84    135.46     54.47    1.2029
  J503                 0.06    135.60     35.95    1.9708
  J504                 0.05    135.47     68.76    1.4970
  J394                 0.00    143.69     73.16    0.0000
  J509                 0.34    135.59     35.65    1.9211
  J399                 0.00    143.69     68.69    0.0000
  J401                 0.00    143.69     73.69    0.0000
  J406                 0.00    143.69     71.95    0.0000
  J295                 0.15    104.24     47.82    1.0668
  J407                 0.00    143.69     75.69    0.0000
  J296                 0.63    104.04     73.13    0.8385
  J408                 0.45     75.32     67.39    3.2983
  J297                 0.49    105.79      6.74    1.1652
  J298                 0.19    104.73     27.27    1.1514
  J191                 0.39     80.07     74.31    0.9253
  J303                 0.66    103.61     53.19    1.7929
  J192                 0.63     82.57     70.17    3.8571
  J193                 0.34     82.57     69.58    3.5981
  J305                 0.79    103.60     56.49    1.6785
  J194                 0.63     81.20     67.74    3.8027
  J195                 0.07     80.07     64.68    2.2563
  J196                 0.54     81.22     67.87    3.8042
  J308                 0.60     71.93     38.69    2.3522
  J198                 0.01     73.77     55.23    1.6353
  J200                 0.36     73.77     58.02    2.0159
  J199                 0.34     73.77     57.51    2.6592
  J201                 0.23     71.15     26.29    2.2807
  J202                 0.83     74.01     63.60    2.7443
  J203                 0.68     73.68     62.65    2.6478
  J204                 0.59     72.57     51.06    2.4531
  J205                 0.35     73.80     57.14    2.6889
  J206                 0.62     73.77     59.65    2.4931
  J207                 0.23     73.76     54.90    2.1256
  J208                 0.30     73.90     62.65    1.4313
  J101                 0.37     78.65     50.00    1.9032
  J102                 0.80     79.61     32.65    2.2388
  J109                 0.10     78.64     61.17    3.5412
  J1                   0.54     81.22     64.40    3.3462
  J2                   0.29     80.08     68.11    2.4814
  J3                   0.09     72.14     43.12    2.5746
  J4                   0.16     72.19     51.31    2.4530
  J5                   0.07     72.41     49.66    2.5902
  J6                   0.37     71.75     56.50    1.4864
  J7                   0.81     71.85     46.94    1.9561
  J8                   0.46     71.95     40.78    1.8556
  J9                   0.42     72.07     40.18    2.0758
  J10                  0.82     69.95     55.33    3.1018
  J11                  0.18     73.94     55.51    3.2155
  J12                  0.32     72.18     42.91    3.1618
  J13                  0.33     71.78     39.74    3.1272
  J14                  0.00     68.69     30.78    3.1086
  J15                  0.00    143.69     40.85    0.0000
  J16                  0.00    143.69     54.80    0.0000
  J17                  0.00    143.69     60.94    0.0000
  J18                  0.00    143.69     58.73    0.0000
  J19                  0.00    143.69     52.75    0.0000
  J20                  0.00    143.69     63.69    0.0000
  J21                  0.00    143.69     63.69    0.0000
  J22                  0.00    140.38     57.64    2.7810
  J23                  0.00    140.75     64.79    2.8197
  J25                  0.06    140.25     46.12    0.9907
  J26                  0.67    140.25     63.90    1.8274
  J27                  0.62    140.25     58.17    1.3767
  J28                  0.44     84.97     39.97    1.4448
  J29                  0.14     84.98     35.98    1.8603
  J30                  0.20    140.25     68.24    1.3460
  J31                  0.29    140.25     70.47    1.9020
  J32                  0.69     84.98     39.98    1.7613
  J33                  0.04     84.97     36.97    1.1984
  J34                  0.46     84.98     34.98    1.5187
  J35                  0.67    140.25     72.47    1.9292
  J36                  0.71     84.99     33.91    1.8824
  J37                  0.29    140.34     74.15    2.2917
  J38                  0.86     84.97     37.97    1.3394
  J24                  0.68     73.89     39.36    1.4733
  J39                  0.57     73.87     27.99    1.5284
  J40                  0.76     73.76     60.96    1.1687
  J123                 0.79    126.15     87.74    0.5316
  J140                 0.38    126.15     86.21    0.5502
  J141                 0.11    126.15     84.70    0.4768
  J157                 0.86    126.15     94.66    0.6250
  J158                 0.72    126.15    100.27    0.5006
  J168                 0.63    126.16     85.95    1.5001
  J170                 0.36    126.16     79.29    0.6876
  J176                 0.01    126.17     75.53    1.6162
  J178                 0.15    126.17     67.30    0.7068
  J184                 0.15    126.16     70.07    0.4161
  J185                 0.46    126.18     82.47    1.8778
  J190                 0.37    126.39     67.90    2.2851
  J197                 0.10    126.62     84.76    2.8778
  J213                 0.25    126.38     74.31    1.9426
  J215                 0.58    126.35     50.59    1.8210
  J216                 0.77    126.68     73.62    3.0271
  J227                 0.45    129.11     76.22    3.0575
  J238                 0.17    131.04     86.88    3.0800
  J239                 0.81    131.04     87.55    3.0470
  J255                 0.34    131.02     95.71    2.8332
  J256                 0.00    131.31     91.31    3.0869
  J258                 0.70    129.11     77.87    3.0024
  J260                 0.20    130.97     98.44    1.9332
  J265                 0.40    130.94     80.07    1.7988
  J266                 0.21    130.96     91.13    1.8920
  J267                 0.77    102.62     80.31    1.9198
  J61                  0.54    110.55     38.55    1.5466
  J92                  0.33    110.51     38.51    1.2467
  J268                 0.34    104.24     34.56    1.0386
  J278                 0.76    134.65     30.36    1.7847
  J281                 0.52    134.59     50.87    1.3750
  J283                 0.82    134.59     40.53    1.5449
  J284                 0.46    134.58     57.20    1.2016
  J136                 0.29    136.09     54.29    1.8012
  J137                 0.73     80.49     71.38    3.2454
  J145                 0.23    126.15     78.69    0.5289
  J118                 0.23    110.90     35.90    1.5575
  J52                  0.16    102.78     48.08    1.3554
  J81                  0.31     84.95     34.95    1.2518
  J88                  0.00     85.00     40.00    1.9292
  J90                  0.66    140.51     56.51    2.4826
  J93                  2.23    140.34     75.34    2.2566
  J147                 0.25    138.38     70.38    1.0755
  J148                 0.62     94.49     44.49    1.3621
  J149                 0.36     94.49     54.49    1.6222
  J150                 0.72     94.47     34.47    1.4635
  J151                 0.65    135.83     75.83    1.4113
  J152                 0.39     81.18     49.18    0.9128
  J153                 0.07    135.83     75.83    1.2976
  J169                 0.36     82.00     40.00    1.5277
  J182                 0.30     81.99     41.99    1.2006
  J222                 0.63     81.20     49.20    1.3233
  J224                 0.28     81.19     44.19    1.2128
  J230                 0.70    103.56     73.56    1.3960
  J235                 0.13    103.59     50.59    1.7143
  J240                 0.52    135.58     48.58    0.3834
  J269                 0.00     91.06     35.06    3.9930
  J273                 0.00     91.07     35.07    3.9930
  J274                 0.00     91.06     35.06    0.0000
  J276                 0.00     58.98      2.98    0.0000
  J280                 0.00     58.98      2.98    3.9975
  J285                 0.00     58.97      2.97    3.9930
  J287                 0.00     67.90     27.90    3.1007
  J288                 0.00     67.84     27.84    3.0947
  J289                 0.00     67.86     27.86    3.0989
  J290                 0.00     67.83     27.83    3.0976
  J291                 0.00    151.56     86.56    3.0976
  J292                 0.00    131.32     91.32    3.0894
  J299                 0.00     67.78     27.78    3.0894
  J300                 0.00     67.80     27.80    3.0918
  J301                 0.00     70.82     26.82    2.2688
  J302                 0.00     70.82     26.82    2.2212
  J304                 0.00    130.52     86.52    2.2688
  J306                 0.00    130.28     86.28    2.2666
  J307                 0.00     70.82     26.82    2.2193
  J309                 0.00     70.82     26.82    0.0000
  J317                 0.00    103.04     59.04    0.0000
  J323                 0.00    103.04     59.04    0.0000
  R1                -192.25     59.00     -0.00    4.0000  Reservoir
  T3                  21.44    117.67      4.77    1.9320  Tank
  T1                  12.78     73.85      2.35    1.6431  Tank
  T7                 -16.51    106.43      4.43    1.1755  Tank
  T6                  -4.77    106.92      5.42    0.5404  Tank
  T5                  18.48    109.79      3.99    1.3699  Tank
  T2                   5.01     68.36      3.36    2.4904  Tank
  T4                  13.83    135.48      2.98    0.6282  Tank
   
   
  Link Results at 265:00:00 hrs:
  ----------------------------------------------
                       Flow  Velocity  Headloss
  Link                  L/s       m/s    /1000m
  ----------------------------------------------
  P1                 0.8410      0.03      0.02
  P10               -1.4240      0.31      2.77
  P100            -191.4581      1.48     13.08
  P1000             23.3172      0.72      7.67
  P101               0.4070      0.01      0.00
  P1016             38.7891      0.53      2.24
  P102             174.9740      0.86      2.59
  P1022             -0.1371      0.02      0.01
  P1023              0.9594      0.12      0.40
  P1024              2.5558      0.31      2.75
  P1025              2.8705      0.63     12.18
  P1026              1.9735      0.44      7.32
  P1027             -0.4869      0.24      3.55
  P1028              0.0445      0.02      0.04
  P1029              0.7879      0.17      1.24
  P103               8.3163      0.16      0.36
  P1030              1.5515      0.34      3.43
  P1031              9.1855      0.51      4.70
  P1032              8.5776      0.47      3.11
  P1033              8.5922      0.47      4.11
  P1034             -0.4345      0.01      0.00
  P1035             -2.9163      0.16      0.42
  P1036              7.9938      0.25      1.12
  P1039             -4.7231      0.15      0.28
  P104               0.2793      0.01      0.00
  P1040             -2.3845      0.13      0.31
  P1041              2.0929      0.26      1.22
  P1042             -1.7911      0.10      0.28
  P1044            -18.4843      0.57      3.06
  P1045            -18.7489      0.58      2.29
  P106               2.0824      0.25      3.56
  P107              -5.2324      0.16      0.44
  P108               1.7167      0.05      0.06
  P109               5.7998      0.18      0.58
  P11                0.8365      0.10      0.31
  P110            -171.0641      0.84      2.21
  P111               0.3422      0.02      0.01
  P112               1.1525      0.02      0.00
  P113              -5.9069      0.33      2.04
  P115               7.0464      0.86     17.43
  P116              -3.5683      0.20      0.68
  P117               3.6953      0.45      9.10
  P118               1.9720      0.24      1.89
  P119               0.1884      0.00      0.00
  P12               17.1878      0.13      0.11
  P120               2.5317      0.31      2.78
  P121               0.3366      0.02      0.01
  P122             -14.0177      0.19      0.39
  P123               1.6551      0.09      0.36
  P124              -0.5826      0.07      0.23
  P125              -3.5921      0.02      0.00
  P126              -0.6211      0.14      0.84
  P127              -0.9362      0.11      0.62
  P128               0.6096      0.07      0.19
  P129               0.4541      0.06      0.15
  P13               14.0255      0.11      0.09
  P130               0.9643      0.21      2.95
  P131               0.2338      0.05      0.19
  P132               0.7148      0.16      1.12
  P134              -1.1235      0.25      3.22
  P136              -1.1890      0.15      0.91
  P138             -24.2114      0.48      3.08
  P139             -17.4887      0.14      0.19
  P14               13.3470      0.10      0.11
  P140               0.7059      0.09      0.18
  P141               3.9505      0.48      4.70
  P142               2.2269      0.12      0.33
  P144              -4.7690      1.05     29.97
  P147               0.6112      0.02      0.01
  P148              38.7891      0.53      1.78
  P15               12.7776      0.10      0.06
  P150              -2.1525      0.12      0.22
  P154              20.7189      1.14     13.28
  P155              -7.2284      0.89     14.18
  P156              -0.0378      0.00      0.00
  P157              -1.1452      0.14      0.48
  P158              -0.7340      0.16      0.85
  P159              -1.1823      0.04      0.03
  P16                2.1033      0.26      1.65
  P160               1.3999      0.31      2.84
  P161               2.4968      0.55     10.97
  P162             -25.8859      1.43     24.00
  P163               1.0100      0.03      0.02
  P165             -38.7732      0.53      1.91
  P166              -0.6466      0.08      0.20
  P17              167.4780      0.83      3.36
  P174              -0.8504      0.10      0.36
  P177              -0.7948      0.10      0.26
  P18              165.1447      0.81      2.02
  P184               1.9656      0.24      1.52
  P19               71.5580      0.35      0.45
  P195              -0.9671      0.21      2.32
  P2                -6.9274      0.21      1.21
  P20               61.3666      0.30      0.40
  P201              -0.6926      0.15      0.89
  P21               48.1111      0.37      0.80
  P211               0.6291      0.14      0.97
  P215               5.0087      0.10      0.13
  P218              -0.7168      0.09      0.31
  P219               0.3644      0.04      0.08
  P22              191.2278      1.48     11.71
  P220               0.6669      0.15      0.88
  P223               0.7669      0.02      0.01
  P225               0.0936      0.01      0.01
  P228               1.1156      0.25      2.06
  P23              190.2565      0.94      4.27
  P230               1.1294      0.25      3.34
  P231               1.4629      0.32      3.45
  P233               0.5295      0.12      0.54
  P234               1.0625      0.23      2.39
  P235              -2.6890      0.59     14.20
  P237              49.3058      0.67    653.73
  P238              49.3057      0.68      2.40
  P24             -171.4819      0.85      2.73
  P241               0.4892      0.06      0.08
  P242               1.6557      0.09      0.14
  P243              -3.6419      0.11      0.21
  P245              35.7259      1.96     29.82
  P246              23.1039      1.27     13.06
  P248              22.2703      1.22     14.67
  P249               0.5929      0.29      5.89
  P25              186.1290      0.92      4.39
  P251               4.3551      0.24      0.81
  P252              49.3057      0.67      3.73
  P255               0.1240      0.06      0.45
  P256             -49.3057      0.67      2.87
  P258               0.0244      0.00      0.00
  P259              -0.1359      0.02      0.01
  P26                3.4183      0.02      0.00
  P264               0.4472      0.06      0.07
  P266               0.7544      0.09      0.21
  P267               0.2459      0.01      0.00
  P268               1.6943      0.09      0.19
  P27                1.5070      0.03      0.02
  P270               0.7164      0.09      0.25
  P272              -1.1499      0.14      0.90
  P275               0.6205      0.03      0.02
  P28                0.7294      0.04      0.04
  P280               0.0000      0.00      0.00
  P282              -2.4621      0.30      2.73
  P284               0.7236      0.16      1.11
  P285               0.0688      0.02      0.01
  P286               0.2996      0.04      0.05
  P287              -5.0087      0.10      0.14
  P288               1.2893      0.28      3.54
  P29                0.6369      0.04      0.03
  P290               0.2757      0.06      0.19
  P291              49.3057      0.67      2.29
  P292              49.3057      0.67      2.74
  P293              49.3057      0.67      3.03
  P294              -1.2489      0.15      0.90
  P295              -3.2830      0.72     27.25
  P296              -0.7347      0.16      1.31
  P297              93.1367      0.72      3.76
  P298              67.5788      0.92      6.36
  P299               2.0757      0.25      1.95
  P3               -13.4087      0.19      0.45
  P30                1.4691      0.03      0.01
  P301              67.0867      0.92      6.19
  P302              66.9029      0.92      6.87
  P303               0.6625      0.15      0.97
  P304               0.3863      0.05      0.09
  P305              -0.0000      0.00      0.00
  P307              66.0112      0.90     11.32
  P308              49.3057      0.67      3.29
  P309               0.7030      0.09      0.23
  P31                5.2886      0.29      1.06
  P310             192.2475      0.66      1.42
  P316             192.2475      0.66      2.11
  P319              -0.0000      0.00      0.00
  P32                8.6098      0.47      2.86
  P320              96.1143      0.33      0.50
  P322              96.1143      0.33      0.38
  P323              -0.0000      0.00      0.00
  P329               1.9336      0.11      0.19
  P33                6.8685      0.14      0.29
  P330               0.9102      0.20      1.49
  P331               0.3733      0.18      2.13
  P336               4.1423      0.23      0.92
  P337             -21.0124      0.29    110.55
  P338               0.1428      0.03      0.04
  P339               0.8446      0.10      0.36
  P34              177.5842      0.88      3.64
  P340             -30.3662      0.42      1.04
  P341             -26.8837      0.37      0.94
  P343              -4.7462      0.26      1.01
  P344               5.3599      0.30      1.68
  P346               0.0543      0.03      0.06
  P347              13.8278      0.19      0.26
  P348              14.6863      0.20      0.34
  P349             -16.6781      0.23      0.37
  P35               -2.4887      0.14      0.42
  P350               0.5235      0.02      0.00
  P37                0.1573      0.00      0.00
  P372              -8.4577      1.04     16.73
  P374              34.1688      0.67      3.76
  P375              34.1688      0.67      5.41
  P376              34.1688      0.67      3.06
  P378              34.1688      0.67      2.59
  P379              49.3058      0.97      6.14
  P38               -1.3425      0.30      2.55
  P380              49.3059      0.97      8.07
  P381              49.3059      0.68      1.89
  P383               4.1976      0.23      1.22
  P384               3.0023      0.66     12.25
  P385             -27.5741      0.38      1.47
  P386              10.5297      0.58      6.72
  P39                0.0919      0.01      0.01
  P397              36.3892      1.12     13.74
  P398              -0.0001      0.00      0.00
  P399              -0.0001      0.00      0.00
  P40               -6.8193      0.83     12.02
  P402              -0.0000      0.00      0.00
  P403              36.3893      1.99     35.59
  P409              36.3892      1.99     53.00
  P410              -0.0000      0.00      0.00
  P42                4.0108      0.22      0.57
  P424              -0.0001      0.00      0.00
  P43                0.2155      0.01      0.00
  P44               19.8539      1.09     11.05
  P443             -65.6915      0.90      5.91
  P445              89.0086      1.76     24.93
  P446               0.0000      0.00      0.00
  P450              -0.0000      0.00      0.00
  P46                0.0932      0.01      0.00
  P465              88.4833      1.75     24.47
  P467              88.4833      1.75     20.15
  P468              83.4746      1.65     15.29
  P48                3.5365      0.19      0.46
[...]
  P106               2.0659      0.25      3.51
  P107              -5.2182      0.16      0.44
  P108               1.6061      0.05      0.05
  P109               5.9315      0.18      0.61
  P11                0.9946      0.12      0.42
  P110            -172.5429      0.85      2.25
  P111               0.4303      0.02      0.02
  P112               1.4491      0.02      0.01
  P113              -6.1351      0.34      2.19
  P115               8.2664      1.01     23.43
  P116              -3.4111      0.19      0.62
  P117               4.0529      0.50     10.80
  P118               1.9351      0.24      1.83
  P119               0.2368      0.00      0.00
  P12               16.4024      0.13      0.10
  P120               3.2320      0.40      4.36
  P121               0.4232      0.02      0.01
  P122             -14.9725      0.20      0.44
  P123               2.1299      0.12      0.57
  P124              -0.7325      0.09      0.35
  P125              -4.5165      0.02      0.00
  P126              -0.7809      0.17      1.28
  P127              -1.1772      0.14      0.94
  P128               0.7665      0.09      0.29
  P129               0.5710      0.07      0.22
  P13               13.3510      0.10      0.08
  P130               1.2125      0.27      4.50
  P131               0.2940      0.06      0.29
  P132               0.8988      0.20      1.70
  P134              -1.3638      0.30      4.60
  P136              -1.4462      0.18      1.31
  P138             -22.3323      0.44      2.66
  P139             -16.7807      0.13      0.18
  P14               12.4979      0.10      0.09
  P140               0.8466      0.10      0.25
  P141               0.7770      0.10      0.23
  P142               2.7322      0.15      0.48
  P144               0.0000      0.00      0.00
  P147               0.7267      0.02      0.01
  P148              36.7202      0.50      1.61
  P15               11.7820      0.09      0.05
  P150               1.3607      0.07      0.09
  P154              -8.4791      0.47      2.54
  P155               1.6459      0.20      0.92
  P156               0.6808      0.08      0.16
  P157              -2.4995      0.31      2.05
  P158              -0.7018      0.15      0.79
  P159              -0.5618      0.02      0.01
  P16                3.8814      0.47      5.13
  P160               1.5005      0.33      3.23
  P161               2.9687      0.65     15.11
  P162               1.5560      0.09      0.13
  P163               1.2392      0.04      0.02
  P165             -36.7007      0.50      1.72
  P166               2.8854      0.36      3.24
  P17              165.9745      0.82      3.31
  P174              -1.0692      0.13      0.55
  P177              -0.9450      0.12      0.35
  P18              163.0409      0.80      1.97
  P184               6.6266      0.82     14.46
  P19               71.4111      0.35      0.45
  P195              -1.1671      0.26      3.29
  P2                -7.3494      0.23      1.35
  P20               60.9671      0.30      0.39
  P201              -0.9197      0.20      1.51
  P21               47.1739      0.36      0.78
  P211               0.7480      0.16      1.34
  P215               0.3262      0.01      0.00
  P218              -0.8523      0.10      0.43
  P219               0.4332      0.05      0.11
  P22              195.2430      1.51     12.17
  P220               0.8385      0.18      1.35
  P223               0.9119      0.03      0.01
  P225               0.1113      0.01      0.01
  P228              -2.0836      0.46      6.54
  P23              194.0218      0.96      4.43
  P230              -2.0672      0.46     10.23
  P231              -1.6707      0.37      4.42
  P233               0.6658      0.15      0.82
  P234               1.3360      0.29      3.65
  P235              -2.4562      0.54     12.01
  P237              49.6235      0.68    661.56
  P238              49.6235      0.68      2.42
  P24             -173.0682      0.85      2.77
  P241               0.5787      0.07      0.11
  P242               2.0315      0.11      0.21
  P243              -4.4684      0.14      0.31
  P245              -0.7956      0.04      0.03
  P246              -3.7666      0.21      0.45
  P248              -5.4924      0.30      1.10
  P249               0.7049      0.35      8.12
  P25              188.8321      0.93      4.51
  P251             -20.6274      1.14     14.39
  P252              49.6235      0.68      3.78
  P255               0.1177      0.06      0.41
  P256             -49.6235      0.68      2.90
  P258               0.0306      0.00      0.00
  P259              -0.1708      0.02      0.02
  P26                4.2980      0.02      0.00
  P264               0.5363      0.07      0.10
  P266               1.6309      0.20      0.88
  P267               0.3017      0.02      0.01
  P268               2.0789      0.11      0.28
  P27                1.8949      0.04      0.03
  P270               0.8790      0.11      0.36
  P272              -1.4947      0.18      1.46
  P275               0.7614      0.04      0.03
  P28                0.9171      0.05      0.06
  P280              -0.0000      0.00      0.00
  P282              -3.0957      0.38      4.17
  P284               0.8879      0.19      1.63
  P285               0.0845      0.02      0.02
  P286               0.3676      0.05      0.08
  P287              -0.3262      0.01      0.00
  P288               1.5818      0.35      5.17
  P29                0.8008      0.04      0.05
  P290               0.3382      0.07      0.27
  P291              49.6235      0.68      2.32
  P292              49.6235      0.68      2.77
  P293              49.6235      0.68      3.06
  P294              -1.5703      0.19      1.38
  P295              -4.1279      0.91     41.65
  P296              -1.5171      0.33      5.07
  P297              91.0639      0.70      3.60
  P298              66.0475      0.90      6.10
  P299               2.6099      0.32      2.98
  P3               -14.2067      0.20      0.50
  P30                1.8472      0.04      0.02
  P301              65.4287      0.90      5.91
  P302              65.1977      0.89      6.55
  P303               0.8330      0.18      1.49
  P304               0.4740      0.06      0.12
  P305               0.0000      0.00      0.00
  P307              63.4832      0.87     10.53
  P308              49.6235      0.68      3.33
  P309               0.8358      0.10      0.32
  P31                5.0725      0.28      0.98
  P310             196.5251      0.67      1.48
  P316             196.5251      0.67      2.20
  P319              -0.0000      0.00      0.00
  P32                8.1729      0.45      2.60
  P320              98.2528      0.34      0.52
  P322              98.2528      0.34      0.39
  P323              -0.0000      0.00      0.00
  P329               2.3724      0.13      0.28
  P33                5.9835      0.12      0.23
  P330               1.1167      0.25      2.18
  P331               0.4581      0.22      3.11
  P336               3.4743      0.19      0.66
  P337             -14.9091      0.20     58.36
  P338               0.1752      0.04      0.07
  P339               1.0362      0.13      0.53
  P34              178.0883      0.88      3.66
  P340             -26.5786      0.36      0.81
  P341             -23.9137      0.33      0.75
  P343              -4.2152      0.23      0.81
  P344               6.3834      0.35      2.32
  P346               0.0666      0.03      0.09
  P347               6.0940      0.08      0.06
  P348               7.1474      0.10      0.09
  P349              -9.5911      0.13      0.13
  P35                0.9610      0.05      0.07
  P350               0.6423      0.02      0.01
  P37                0.1870      0.01      0.00
  P372               0.1714      0.02      0.01
  P374              34.6700      0.68      3.86
  P375              34.6700      0.68      5.56
  P376              34.6701      0.68      3.15
  P378              34.6701      0.68      2.66
  P379              49.6235      0.98      6.21
  P38                0.9449      0.21      1.33
  P380              49.6235      0.98      8.17
  P381              49.6235      0.68      1.91
  P383               4.9574      0.27      1.65
  P384               3.5647      0.79     16.84
  P385             -24.7609      0.34      1.21
  P386              11.1185      0.61      7.43
  P39                0.2179      0.03      0.03
  P397              31.4756      0.97     10.51
  P398              31.4756      0.97      9.74
  P399              31.4756      0.97     11.99
  P40                2.1365      0.26      1.40
  P402              -0.0000      0.00      0.00
  P403              -0.0000      0.00      0.00
  P409              -0.0001      0.00      0.00
  P410              -0.0000      0.00      0.00
  P42                4.8104      0.27      0.80
  P424              31.4756      0.97      5.42
  P43                0.2584      0.01      0.00
  P44               -9.5166      0.52      2.83
  P443             -63.0812      0.86      5.48
  P445              85.2802      1.68     23.03
  P446               0.0000      0.00      0.00
  P450               0.0000      0.00      0.00
  P46                0.1117      0.01      0.01
  P465              84.6197      1.67     22.53
  P467              84.6197      1.67     18.55
  P468              84.2935      1.66     15.57
  P48                4.2416      0.23      0.65
  P482              -2.0192      0.11      0.32
  P484              24.0556      0.74      7.57
  P49                0.6963      0.04      0.02
  P492              -0.5670      0.07      0.11
  P5                -5.7969      0.04      0.02
  P500               0.4352      0.01      0.00
  P501               1.3019      0.07      0.07
  P502               1.2645      0.28      2.55
  P51               -2.5323      0.31      2.57
  P510               0.0000      0.00      0.00
  P52               -1.4231      0.17      0.93
  P524             -10.3553      0.14      0.15
  P527             -14.2441      0.19      0.46
  P529               1.0266      0.13      0.39
  P53               31.4756      0.97     10.53
  P54               -0.9991      0.49     13.36
  P55               -1.9779      0.44      7.47
  P57               -1.0856      0.06      0.07
  P58               -0.1862      0.02      0.02
  P596              -1.6475      0.36      3.34
  P597               0.5602      0.07      0.13
  P6                 0.7307      0.04      0.04
  P609              -2.4199      0.53      6.95
  P610               0.0000      0.00      0.00
  P63               -4.1763      0.08      0.08
  P633              -5.8487      0.32      1.08
  P64                3.5033      0.11      0.21
  P65                2.4317      0.30      1.98
  P67                3.0684      0.09      0.19
  P670              -0.0000      0.00      0.00
  P671               0.0000      0.00      0.00
  P68                1.2953      0.02      0.00
  P69                5.2837      0.29      2.25
  P697               0.0000      0.00      0.00
  P7                17.7880      0.09      0.05
  P70                2.3799      0.13      0.51
  P71                0.4965      0.01      0.00
  P72               -4.2619      0.06      0.04
  P724               0.4076      0.02      0.01
  P725               0.9298      0.05      0.04
  P752               6.1768      0.34      1.48
  P753              -5.3963      0.30      1.58
  P754               0.0000      0.00      0.00
  P755              -0.7801      0.01      0.00
  P756              -0.8763      0.01      0.00
  P757               1.6723      0.02      0.00
  P758               2.6128      0.04      0.01
  P759              -6.4710      0.36      1.66
  P760              -6.6978      0.37      1.85
  P761              -7.1785      0.40      2.31
  P763              -1.7878      0.02      0.00
  P766               1.7260      0.10      0.17
  P767              -3.6577      0.05      0.02
  P768               0.8512      0.02      0.00
  P769              -4.2374      0.06      0.02
  P771               0.4288      0.01      0.00
  P772              -5.4095      0.07      0.06
  P775               0.3544      0.01      0.00
  P776               0.1753      0.02      0.01
  P777              -5.7813      0.08      0.04
  P779              -6.3255      0.20      0.54
  P780              -0.0000      0.00      0.00
  P781               4.6391      0.26      1.16
  P783              -7.7404      0.24      0.47
  P784              -0.2948      0.04      0.04
  P785               0.6865      0.08      0.24
  P786              -7.8537      0.24      0.53
  P787              19.6137      2.40     60.14
  P788             -28.3739      1.56     21.84
  P789               9.7268      0.30      1.59
  P791             -29.7285      1.64     23.05
  P794               4.7411      0.15      0.17
  P795               3.7838      0.12      0.17
  P796              34.6700      1.07     12.00
  P797               0.8230      0.10      0.21
  P798               3.3858      0.10      0.10
  P8               -23.6416      0.18      0.27
  P800              -1.2500      0.04      0.02
  P801               0.1669      0.01      0.00
  P804              -2.2189      0.27      1.64
  P805              -2.6962      0.15      0.28
  P806              -2.9481      0.16      0.39
  P807               0.2049      0.01      0.00
  P808             -14.7661      0.46      2.36
  P809               1.0458      0.13      0.36
  P810              -0.0000      0.00      0.00
  P811               1.7157      0.21      1.32
  P813              18.3312      1.01     20.56
  P815              20.5196      2.51    145.96
  P817               4.2805      0.13      0.37
  P819               4.2098      0.13      0.18
  P821              -0.1569      0.02      0.02
  P822              -1.0761      0.13      0.46
  P823               0.1260      0.03      0.03
  P826              -0.8449      0.19      1.23
  P827               0.8238      0.18      1.08
  P83              195.8939      0.67      1.92
  P830               0.1922      0.04      0.08
  P831              -2.1908      0.48      9.31
  P84               -0.3930      0.01      0.00
  P840             -16.3603      0.51      2.55
  P841              -1.3676      0.30      3.34
  P842              -1.1251      0.53     14.26
  P844              -1.4166      0.17      0.59
  P846               2.6399      0.08      0.08
  P847              -2.3649      0.13      0.33
  P85                0.5564      0.12      1.09
  P850              -1.1573      0.14      0.42
  P851              -0.5773      0.13      0.42
  P852              -4.7220      0.15      0.22
  P853             -20.1519      0.62      2.63
  P855               0.5765      0.07      0.11
  P858              -0.9733      0.12      0.30
  P859               4.1057      0.23      0.85
  P86              -36.2622      0.50      1.22
  P861               0.6965      0.04      0.04
  P866               1.1454      0.14      0.59
  P87               -3.9635      0.12      0.29
  P871               0.4985      0.06      0.13
  P880               0.3460      0.08      0.31
  P889               1.9399      0.06      0.06
  P89                1.6281      0.09      0.22
  P892             -86.7168      1.71     35.08
  P9                23.1461      0.46      3.31
  P90                1.4591      0.18      1.91
  P91                0.3519      0.04      0.06
  P914              -0.0000      0.00      0.00
  P915              20.7214      1.14     27.98
  P92                1.2503      0.04      0.03
  P924              -1.3893      0.03      0.01
  P927              -0.0597      0.00      0.00
  P929              -0.0000      0.00      0.00
  P930              -0.0000      0.00      0.00
  P931              -0.0000      0.00      0.00
  P932               0.0000      0.00      0.00
  P933              49.6235      0.68      3.34
  P934              49.6235      0.98      6.08
  P935              36.7202      0.50      1.51
  P937              12.9033      0.25      0.92
  P938              10.8434      0.21      0.66
  P939               0.2968      0.02      0.01
  P94               -0.0587      0.00      0.00
  P940               0.2270      0.01      0.00
  P941               0.0291      0.00      0.00
  P942               0.5609      0.03      0.03
  P943              -0.3758      0.08      0.35
  P944              -1.6766      0.03      0.02
  P946              -0.2132      0.03      0.02
  P947              -0.7320      0.04      0.05
  P948              -1.8632      0.10      0.16
  P949              -2.2430      0.04      0.02
  P95                0.3352      0.00      0.00
  P951              10.6185      0.21      0.41
  P953               7.5341      0.15      0.26
  P954               1.5697      0.05      0.05
  P955               0.2913      0.04      0.05
  P956               0.7174      0.04      0.06
  P957              -0.0547      0.00      0.00
  P958              -0.2815      0.03      0.03
  P959               0.1822      0.02      0.02
  P96               86.1021      1.70     22.62
  P961              -3.5353      0.11      0.19
  P962               0.6102      0.03      0.03
  P963               5.8761      0.18      0.49
  P964               1.4920      0.08      0.13
  P965               3.9411      0.12      0.20
  P966               2.0933      0.06      0.08
  P967               1.0201      0.03      0.02
  P968               0.0166      0.00      0.00
  P969               0.5462      0.02      0.01
  P97              195.9951      0.67      1.42
  P970              -0.8396      0.03      0.01
  P971               1.3381      0.07      0.15
  P972               1.2230      0.07      0.12
  P973              -3.2981      0.10      0.23
  P974              -3.0320      0.09      0.19
  P975               1.1042      0.06      0.12
  P976              -1.2597      0.28      3.57
  P977               0.6375      0.08      0.16
  P978              -2.2316      0.49     11.38
  P98              196.3449      0.67      2.12
  P981              -3.2372      0.71     21.96
  P982              -1.5159      0.05      0.03
  P983              -3.2660      0.40      4.22
  P984               1.0652      0.13      0.39
  P986               0.4992      0.06      0.14
  P987              -0.6699      0.08      0.21
  P988              -2.3527      0.29      1.88
  P989              -0.2092      0.10      0.92
  P99              173.3292      0.86      2.37
  P990              -1.0894      0.13      0.62
  P991              13.2364      0.41      2.87
  P992              12.1911      0.38      2.12
  P993              10.4375      0.32      1.60
  P994               9.1715      0.28      1.18
  P995              12.3353      0.68      8.49
  P996             -32.3183      1.00     11.79
  P997             -20.2750      0.63      3.88
  P998             -21.0314      0.65      4.68
  P999              21.4809      0.42      2.73
  PU1               98.2528      0.00    -30.95  Pump
  PU2               98.2723      0.00    -30.93  Pump
  PU3                0.0000      0.00      0.00  Pump
  PU4               34.6701      0.00    -62.70  Pump
  PU5                0.0000      0.00      0.00  Pump
  PU6                0.0000      0.00      0.00  Pump
  PU7               49.6235      0.00    -83.12  Pump
  PU8                0.0000      0.00      0.00  Pump
  PU9                0.0000      0.00      0.00  Pump
  PU10              31.4757      0.00    -45.09  Pump
  PU11               0.0000      0.00      0.00  Pump
  v1                 4.4711      0.14     53.19  PRV
  V45                2.5449      0.14     38.99  PRV
  V47                2.3942      0.30     50.97  PRV
  V2                84.6197      1.67      0.00  FCV
   